data_str_m2_o5_o26_f0_pcu.sym.159
_audit_creation_date              2012-12-10T19:11:32-0500
_audit_creation_method            fapswitch 2.2
_symmetry_space_group_name_H-M    P1
_symmetry_Int_Tables_number       1
_space_group_crystal_system       triclinic
_cell_length_a                    7.774219
_cell_length_b                    9.089077
_cell_length_c                    17.248423
_cell_angle_alpha                 89.612714
_cell_angle_beta                  86.219897
_cell_angle_gamma                 89.966627
_cell_volume                      1216.10241672

loop_
_atom_site_label
_atom_site_type_symbol
_atom_type_description
_atom_site_fract_x
_atom_site_fract_y
_atom_site_fract_z
_atom_type_partial_charge
C1    C     C_R   0.499930 0.779997 0.500483 0.870349
C2    C     C_R   0.500053 0.219999 0.499710 0.860784
C3    C     C_1   0.499966 0.934629 0.500283 -0.084931
C4    C     C_1   0.500029 0.065372 0.499983 -0.089402
C5    C     C_R   0.478445 0.491488 0.650399 0.837649
C6    C     C_R   0.521600 0.508062 0.349613 0.839211
C7    C     C_R   0.466672 0.474757 0.735102 -0.149350
C8    C     C_R   0.533288 0.523246 0.264910 -0.142581
C9    C     C_R   0.584914 0.386978 0.774655 0.391769
C10   C     C_R   0.418494 0.614192 0.225302 0.367029
C11   C     C_R   0.567979 0.379229 0.855538 -0.161621
C12   C     C_R   0.433274 0.619254 0.144362 -0.127282
C13   C     C_R   0.439485 0.458567 0.897115 0.018492
C14   C     C_R   0.557432 0.535168 0.102866 0.032328
C15   C     C_R   0.318711 0.539488 0.858321 -0.022273
C16   C     C_R   0.675243 0.450923 0.141695 -0.072757
C17   C     C_R   0.331755 0.546962 0.777636 -0.190112
C18   C     C_R   0.663625 0.445445 0.222428 -0.170070
C19   C     C_2   0.436226 0.460806 0.981812 0.216276
C20   C     C_2   0.560604 0.533187 0.018208 0.225508
Cu1   Cu    Cu3+1 0.330920 0.500000 0.500000 1.116339
Cu2   Cu    Cu3+1 0.669080 0.500000 0.500000 1.118868
H1    H     H_    0.217834 0.599994 0.890589 0.206902
H2    H     H_    0.773004 0.386917 0.109441 0.209003
H3    H     H_    0.346159 0.686725 0.112894 0.190725
H4    H     H_    0.656998 0.313840 0.887027 0.194518
H5    H     H_    0.753641 0.377043 0.251760 0.190732
H6    H     H_    0.239118 0.612822 0.748429 0.195162
N1    N     N_1   0.923170 0.500000 0.500010 0.003713
N2    N     N_1   0.076830 0.500000 0.499990 0.002524
O1    O     O_R   0.357240 0.711600 0.500000 -0.554551
O2    O     O_R   0.642760 0.288400 0.500000 -0.556454
O3    O     O_R   0.642760 0.711600 0.500000 -0.582273
O4    O     O_R   0.357240 0.288400 0.500000 -0.583519
O5    O     O_R   0.340660 0.500000 0.613590 -0.586137
O6    O     O_R   0.659340 0.500000 0.386410 -0.585754
O7    O     O_R   0.626230 0.500000 0.613600 -0.528899
O8    O     O_R   0.373770 0.500000 0.386400 -0.533255
S1    S     S_3+6 0.751476 0.281601 0.726656 0.048532
O9    O     O_2   0.679644 0.194639 0.662501 -0.274958
O10   O     O_2   0.890525 0.382230 0.692551 -0.274926
O11   O     O_3   0.838257 0.163681 0.788855 -0.472627
H7    H     H_    0.926371 0.221490 0.814345 0.376608
S2    S     S_3+6 0.259205 0.726866 0.273354 0.043896
O12   O     O_2   0.113669 0.632085 0.306497 -0.225559
O13   O     O_2   0.335177 0.809206 0.338124 -0.318263
O14   O     O_3   0.179720 0.848689 0.211103 -0.479735
H8    H     H_    0.274388 0.919938 0.199231 0.368498
S3    S     S_3+6 0.728994 0.634708 0.967813 0.035412
O15   O     O_2   0.864921 0.530792 0.934834 -0.279780
O16   O     O_2   0.659726 0.722267 0.902528 -0.226612
O17   O     O_3   0.818402 0.751271 0.028991 -0.456148
H9    H     H_    0.892928 0.689217 0.060226 0.382758
S4    S     S_3+6 0.267569 0.360075 0.032433 0.027798
O18   O     O_2   0.338047 0.265325 0.094702 -0.271979
O19   O     O_2   0.138160 0.465298 0.069395 -0.266550
O20   O     O_3   0.167556 0.252912 0.970227 -0.463975
H10   H     H_    0.255619 0.180291 0.951564 0.360948

loop_
_geom_bond_atom_site_label_1
_geom_bond_atom_site_label_2
_ccdc_geom_bond_type
C2    C4    S    
C6    O8    A    
N1    N2    T    
Cu1   O5    S    
Cu2   N1    S    
C5    O7    A    
C9    C11   A    
Cu1   N2    S    
Cu2   O2    S    
C19   C20   D    
S2    O14   S    
C1    O1    A    
C12   H3    S    
C18   H5    S    
S3    O17   S    
C2    O4    A    
C15   H1    S    
O20   H10   S    
C1    O3    A    
S1    O10   D    
C16   C18   A    
Cu1   Cu2   S    
O17   H9    S    
C11   C13   A    
Cu1   O1    S    
C20   S3    S    
C10   C12   A    
C5    O5    A    
C19   S4    S    
C2    O2    A    
C12   C14   A    
S1    O11   S    
S4    O19   D    
C13   C15   A    
C14   C16   A    
O11   H7    S    
C13   C19   S    
C10   S2    S    
C3    C4    T    
C7    C9    A    
C9    S1    S    
Cu2   O6    S    
S2    O12   D    
C14   C20   S    
C16   H2    S    
S3    O15   D    
S1    O9    D    
C15   C17   A    
Cu2   O3    S    
C5    C7    S    
C6    C8    S    
Cu1   O4    S    
S2    O13   D    
C11   H4    S    
C1    C3    S    
S4    O18   D    
C17   H6    S    
Cu2   O7    S    
C8    C10   A    
C8    C18   A    
Cu1   O8    S    
O14   H8    S    
C6    O6    A    
S3    O16   D    
S4    O20   S    
C7    C17   A    
