data_str_m2_o4_o4_f0_pcu.sym.6
_audit_creation_date              2012-10-26T19:15:06-0400
_audit_creation_method            fapswitch 2.2
_symmetry_space_group_name_H-M    P1
_symmetry_Int_Tables_number       1
_space_group_crystal_system       triclinic
_cell_length_a                    10.819855
_cell_length_b                    10.825297
_cell_length_c                    9.559035
_cell_angle_alpha                 89.905017
_cell_angle_beta                  89.680694
_cell_angle_gamma                 90.857078
_cell_volume                      1119.48767902

loop_
_atom_site_label
_atom_site_type_symbol
_atom_type_description
_atom_site_fract_x
_atom_site_fract_y
_atom_site_fract_z
_atom_type_partial_charge
C1    C     C_R   0.500661 0.262453 0.499973 0.557279
C2    C     C_R   0.530451 0.936524 0.621086 0.009127
C3    C     C_3   0.466245 0.929686 0.759529 -0.269495
C4    C     C_R   0.262513 0.500466 0.500418 0.546011
C5    C     C_3   0.468670 0.069836 0.760355 -0.272854
C6    C     C_R   0.562477 0.590633 0.072945 0.176104
C7    C     C_R   0.429185 0.418237 0.074970 -0.020889
C8    C     C_R   0.428988 0.418391 0.926215 -0.017579
C9    C     C_R   0.563009 0.589659 0.925276 0.143947
C10   C     C_3   0.698217 0.615489 0.915583 -0.246414
C11   C     C_3   0.699150 0.616235 0.074677 -0.132574
C12   C     C_R   0.935523 0.477899 0.622557 0.022810
C13   C     C_R   0.499522 0.737597 0.499858 0.541924
C14   C     C_R   0.737644 0.500604 0.499855 0.564862
C15   C     C_R   0.062991 0.478786 0.623119 -0.009236
C16   C     C_R   0.129580 0.508386 0.501976 0.007408
C17   C     C_R   0.066261 0.550443 0.383773 -0.163731
C18   C     C_R   0.937558 0.549927 0.383491 -0.177563
C19   C     C_R   0.871134 0.507635 0.501076 0.014104
C20   C     C_3   0.738402 0.739635 0.144107 -0.274556
C21   C     C_3   0.678520 0.855897 0.085331 -0.441683
C22   C     C_3   0.855292 0.149133 0.722375 -0.309667
C23   C     C_3   0.928340 0.363881 0.711926 0.015668
C24   C     C_3   0.069173 0.365482 0.712299 -0.251586
C25   C     C_R   0.531726 0.063894 0.621178 0.023445
C26   C     C_R   0.508192 0.129380 0.498522 0.014775
C27   C     C_R   0.495664 0.064481 0.372088 -0.170161
C28   C     C_R   0.492870 0.936049 0.372630 -0.171491
C29   C     C_R   0.505682 0.871017 0.498650 0.006633
Cu1   Cu    Cu3+1 0.499990 0.499980 0.640670 0.938686
Cu2   Cu    Cu3+1 0.500010 0.500020 0.359330 0.922789
H1    H     H_    0.115709 0.579865 0.290366 0.133640
H2    H     H_    0.890850 0.578852 0.290189 0.114849
H3    H     H_    0.885814 0.380512 0.816179 0.129152
H4    H     H_    0.108555 0.385998 0.817011 0.107997
H5    H     H_    0.112377 0.286529 0.657082 0.129335
H6    H     H_    0.481250 0.112248 0.273988 0.128824
H7    H     H_    0.474164 0.888127 0.275864 0.135339
H8    H     H_    0.371440 0.889094 0.752524 0.142426
H9    H     H_    0.720531 0.882320 0.983283 0.132781
H10   H     H_    0.577570 0.841905 0.072937 0.143266
H11   H     H_    0.694715 0.934096 0.158297 0.142235
H12   H     H_    0.525526 0.888228 0.840600 0.130776
H13   H     H_    0.716727 0.733507 0.257588 0.179880
H14   H     H_    0.840289 0.750831 0.133946 0.130085
H15   H     H_    0.913476 0.241051 0.541150 0.255338
H16   H     H_    0.809025 0.076483 0.658695 0.146830
H17   H     H_    0.794698 0.170029 0.813272 0.151378
H18   H     H_    0.945090 0.113660 0.759867 0.130641
H19   H     H_    0.375188 0.110859 0.754570 0.127322
H20   H     H_    0.529931 0.109623 0.842265 0.132758
H21   H     H_    0.373704 0.350389 0.131135 0.112084
H22   H     H_    0.373259 0.350747 0.870979 0.106504
H23   H     H_    0.749589 0.536667 0.871577 0.131131
H24   H     H_    0.719014 0.704750 0.862951 0.130902
H25   H     H_    0.750120 0.536248 0.117191 0.133271
N1    N     N_R   0.500790 0.500930 0.147930 -0.239945
N2    N     N_R   0.500790 0.500890 0.852020 -0.235027
N3    N     N_2   0.875078 0.258669 0.638082 -0.498232
O1    O     O_R   0.500000 0.319640 0.618810 -0.497930
O2    O     O_R   0.500010 0.319680 0.381230 -0.512280
O3    O     O_R   0.319650 0.499970 0.618810 -0.501570
O4    O     O_R   0.319660 0.500010 0.381230 -0.509633
O5    O     O_R   0.499990 0.680320 0.618770 -0.499849
O6    O     O_R   0.500000 0.680360 0.381190 -0.511129
O7    O     O_R   0.680340 0.499990 0.618770 -0.493557
O8    O     O_R   0.680350 0.500030 0.381190 -0.515685

loop_
_geom_bond_atom_site_label_1
_geom_bond_atom_site_label_2
_ccdc_geom_bond_type
C8    H22   S    
C4    C16   S    
C22   H17   S    
C14   O8    A    
Cu1   O5    S    
H15   N3    S    
C9    C10   S    
Cu2   O2    S    
C20   H14   S    
C4    O4    A    
C12   C15   A    
C28   H7    S    
C23   C24   S    
C23   H3    S    
C4    O3    A    
Cu2   N1    S    
C6    C9    A    
C2    C3    S    
C14   O7    A    
C3    H8    S    
C7    C8    A    
C13   O6    A    
C23   N3    S    
C10   H24   S    
C21   H9    S    
C12   C23   S    
C3    H12   S    
C26   C27   A    
C24   H5    S    
C13   O5    A    
C27   H6    S    
C22   H18   S    
C21   H10   S    
Cu1   N2    S    
C12   C19   A    
C13   C29   S    
C15   C24   S    
C20   H13   S    
C7    H21   S    
C22   H16   S    
C2    C25   A    
Cu1   O3    S    
Cu1   Cu2   S    
C10   H23   S    
C18   H2    S    
C5    C25   S    
C5    H19   S    
C1    C26   S    
C24   H4    S    
C6    N1    A    
C10   C11   S    
Cu2   O8    S    
C6    C11   S    
C15   C16   A    
C28   C29   A    
Cu2   O4    S    
C22   N3    S    
C2    C29   A    
C20   C21   S    
C17   C18   A    
C9    N2    A    
C1    O1    A    
C27   C28   A    
Cu2   O6    S    
C17   H1    S    
C14   C19   S    
C18   C19   A    
C8    N2    A    
C25   C26   A    
C11   C20   S    
C7    N1    A    
C5    H20   S    
C11   H25   S    
C21   H11   S    
Cu1   O7    S    
Cu1   O1    S    
C16   C17   A    
C3    C5    S    
C1    O2    A    
