data_str_m2_o4_o19_f0_pcu.sym.176
_audit_creation_date              2012-12-10T19:01:52-0500
_audit_creation_method            fapswitch 2.2
_symmetry_space_group_name_H-M    P1
_symmetry_Int_Tables_number       1
_space_group_crystal_system       triclinic
_cell_length_a                    11.708473
_cell_length_b                    10.866735
_cell_length_c                    9.573532
_cell_angle_alpha                 89.730159
_cell_angle_beta                  90.285622
_cell_angle_gamma                 89.948415
_cell_volume                      1218.03882132

loop_
_atom_site_label
_atom_site_type_symbol
_atom_type_description
_atom_site_fract_x
_atom_site_fract_y
_atom_site_fract_z
_atom_type_partial_charge
C1    C     C_R   0.501168 0.262834 0.500087 0.824123
C2    C     C_R   0.498554 0.130329 0.497843 -0.140627
C3    C     C_R   0.508680 0.066556 0.370636 -0.313574
C4    C     C_R   0.501350 0.937314 0.367331 0.465646
C5    C     C_R   0.486990 0.870555 0.494304 -0.228914
C6    C     C_R   0.464303 0.938442 0.613760 -0.045696
C7    C     C_3   0.443270 0.929358 0.768497 0.293487
C8    C     C_3   0.464996 0.069469 0.771190 -0.451016
C9    C     C_R   0.597583 0.477723 0.074572 0.118105
C10   C     C_R   0.401904 0.518933 0.073354 -0.056712
C11   C     C_R   0.401992 0.519560 0.925193 -0.061899
C12   C     C_R   0.284046 0.499820 0.499744 0.796754
C13   C     C_R   0.597465 0.474913 0.927352 0.105319
C14   C     C_3   0.707632 0.546528 0.921445 0.820325
C15   C     C_3   0.704029 0.552689 0.080329 -0.541420
C16   C     C_R   0.495979 0.737399 0.499019 0.798251
C17   C     C_R   0.715944 0.500135 0.500260 0.816651
C18   C     C_1   0.162341 0.499274 0.499417 -0.193606
C19   C     C_1   0.059868 0.499241 0.499779 -0.005344
C20   C     C_1   0.940091 0.499663 0.500384 -0.014186
C21   C     C_1   0.837632 0.499976 0.500610 -0.198686
C22   C     C_R   0.478478 0.061366 0.617160 0.042675
Cu1   Cu    Cu3+1 0.499990 0.499980 0.640670 0.953515
Cu2   Cu    Cu3+1 0.500010 0.500020 0.359330 0.951612
H1    H     H_    0.775445 0.503233 0.132901 0.180613
H2    H     H_    0.687693 0.646404 0.122124 0.213206
H3    H     H_    0.508511 0.874595 0.826269 0.125867
H4    H     H_    0.389513 0.125777 0.800509 0.218378
H5    H     H_    0.322601 0.536074 0.126990 0.138933
H6    H     H_    0.322817 0.537680 0.870542 0.133581
N1    N     N_R   0.500710 0.500930 0.147930 -0.158427
N2    N     N_R   0.500710 0.500890 0.852020 -0.176928
O1    O     O_R   0.500000 0.319640 0.618810 -0.588051
O2    O     O_R   0.500010 0.319680 0.381230 -0.583256
O3    O     O_R   0.337190 0.499990 0.618790 -0.593897
O4    O     O_R   0.337200 0.500030 0.381210 -0.593022
O5    O     O_R   0.499990 0.680320 0.618770 -0.573883
O6    O     O_R   0.500000 0.680360 0.381190 -0.530799
O7    O     O_R   0.662800 0.499970 0.618790 -0.558340
O8    O     O_R   0.662810 0.500010 0.381210 -0.574858
H7    H     H_    0.523525 0.115923 0.273874 0.173011
O9    O     O_3   0.687464 0.663339 0.857543 -0.612279
C23   C     C_3   0.788173 0.726542 0.818451 0.120470
H8    H     H_    0.761953 0.800907 0.744914 0.138757
H9    H     H_    0.848486 0.668358 0.758412 0.183984
C24   C     C_3   0.846775 0.786792 0.944153 -0.386748
H10   H     H_    0.786401 0.851892 0.994243 0.228080
H11   H     H_    0.872587 0.715993 0.022033 0.231123
C25   C     C_3   0.953638 0.855821 0.899129 -0.936319
H12   H     H_    0.019819 0.789120 0.866270 0.263983
H13   H     H_    0.987293 0.910132 0.988030 0.267445
H14   H     H_    0.934228 0.919259 0.810924 0.259570
O10   O     O_3   0.512575 0.876104 0.241517 -0.605259
C26   C     C_3   0.414275 0.894309 0.156677 0.099084
H15   H     H_    0.428546 0.842172 0.058997 0.199193
H16   H     H_    0.404366 0.992729 0.126308 0.135928
C27   C     C_3   0.303755 0.845543 0.224324 -0.400853
H17   H     H_    0.317398 0.751065 0.265390 0.240973
H18   H     H_    0.279091 0.906198 0.312221 0.207436
C28   C     C_3   0.205181 0.841971 0.120200 -0.877842
H19   H     H_    0.193195 0.933538 0.070163 0.277540
H20   H     H_    0.125372 0.816176 0.175239 0.251103
H21   H     H_    0.222368 0.771812 0.039231 0.257739
O11   O     O_3   0.329237 0.907667 0.814070 -0.618941
C29   C     C_3   0.263892 0.829651 0.726920 0.104410
H22   H     H_    0.210873 0.770217 0.794879 0.138834
H23   H     H_    0.315170 0.765361 0.664448 0.147562
C30   C     C_3   0.184476 0.906738 0.633627 -0.359446
H24   H     H_    0.129776 0.965808 0.700102 0.230580
H25   H     H_    0.235500 0.967887 0.564908 0.218791
C31   C     C_3   0.108600 0.825496 0.542729 -0.944700
H26   H     H_    0.054098 0.765507 0.608764 0.263265
H27   H     H_    0.161830 0.767287 0.473782 0.254670
H28   H     H_    0.052506 0.884150 0.476360 0.261453
H29   H     H_    0.546060 0.095184 0.824392 0.148418
O12   O     O_3   0.808447 0.484896 0.872777 -0.646984
C32   C     C_3   0.798951 0.356769 0.846977 0.026436
H30   H     H_    0.866286 0.333566 0.770083 0.182516
H31   H     H_    0.717363 0.329676 0.796153 0.147989
C33   C     C_3   0.821329 0.281241 0.980009 -0.393980
H32   H     H_    0.899497 0.315939 0.033077 0.237650
H33   H     H_    0.748406 0.289816 0.052693 0.208052
C34   C     C_3   0.837448 0.145406 0.946659 -0.911272
H34   H     H_    0.913542 0.133150 0.879371 0.257640
H35   H     H_    0.760836 0.108485 0.892343 0.252718
H36   H     H_    0.850679 0.092831 0.045151 0.264321

loop_
_geom_bond_atom_site_label_1
_geom_bond_atom_site_label_2
_ccdc_geom_bond_type
C4    O10   S    
C13   N2    A    
C19   C20   S    
C1    O1    A    
C7    C8    S    
O10   C26   S    
C24   C25   S    
Cu2   O4    S    
C28   H21   S    
C1    C2    S    
C5    C6    A    
C27   H18   S    
C29   H23   S    
C6    C22   A    
C7    H3    S    
C28   H20   S    
C18   C19   T    
C17   O7    A    
C9    C13   A    
C5    C16   S    
C26   H15   S    
C10   N1    A    
C11   H6    S    
C30   H24   S    
Cu1   O1    S    
C2    C22   A    
Cu2   O6    S    
Cu1   Cu2   S    
C12   O4    A    
C32   H30   S    
C16   O5    A    
C14   O9    S    
C25   H14   S    
C13   C14   S    
C33   C34   S    
C1    O2    A    
C24   H11   S    
C32   H31   S    
C26   H16   S    
O12   C32   S    
C33   H33   S    
C31   H27   S    
C4    C5    A    
C15   H2    S    
C25   H13   S    
Cu1   O5    S    
C8    H29   S    
Cu2   O2    S    
C28   H19   S    
C17   O8    A    
C14   O12   S    
C23   H8    S    
C8    C22   S    
C34   H34   S    
C29   C30   S    
C12   O3    A    
C23   H9    S    
C34   H35   S    
C11   N2    A    
C29   H22   S    
Cu1   O3    S    
C8    H4    S    
O9    C23   S    
C3    C4    A    
C32   C33   S    
C24   H10   S    
C3    H7    S    
C33   H32   S    
C27   C28   S    
C31   H28   S    
C6    C7    S    
O11   C29   S    
C2    C3    A    
C9    C15   S    
Cu2   N1    S    
C31   H26   S    
Cu1   N2    S    
C10   H5    S    
C27   H17   S    
C30   C31   S    
Cu1   O7    S    
Cu2   O8    S    
C23   C24   S    
C17   C21   S    
C7    O11   S    
C15   H1    S    
C10   C11   A    
C9    N1    A    
C34   H36   S    
C20   C21   T    
C30   H25   S    
C25   H12   S    
C12   C18   S    
C14   C15   S    
C16   O6    A    
C26   C27   S    
