data_str_m2_o4_o14_f0_pcu.sym.150
_audit_creation_date              2012-12-10T18:59:15-0500
_audit_creation_method            fapswitch 2.2
_symmetry_space_group_name_H-M    P1
_symmetry_Int_Tables_number       1
_space_group_crystal_system       triclinic
_cell_length_a                    10.852931
_cell_length_b                    10.843743
_cell_length_c                    9.518631
_cell_angle_alpha                 90.964715
_cell_angle_beta                  89.343069
_cell_angle_gamma                 90.57071
_cell_volume                      1119.92750713

loop_
_atom_site_label
_atom_site_type_symbol
_atom_type_description
_atom_site_fract_x
_atom_site_fract_y
_atom_site_fract_z
_atom_type_partial_charge
C1    C     C_R   0.497768 0.262489 0.499001 0.796337
C2    C     C_R   0.058666 0.497460 0.635040 0.107073
C3    C     C_R   0.126642 0.509444 0.506907 -0.104338
C4    C     C_R   0.064094 0.508202 0.378896 -0.208803
C5    C     C_R   0.937255 0.496621 0.376632 -0.189426
C6    C     C_R   0.871127 0.475020 0.500897 -0.110548
C7    C     C_R   0.510661 0.067727 0.622523 0.061853
C8    C     C_R   0.488746 0.129651 0.498729 -0.057187
C9    C     C_R   0.455452 0.061864 0.378029 -0.216833
C10   C     C_R   0.456922 0.933175 0.379769 -0.223596
C11   C     C_R   0.491980 0.871544 0.502067 -0.056290
C12   C     C_R   0.261799 0.506474 0.501848 0.794628
C13   C     C_R   0.512314 0.940724 0.625308 0.048151
C14   C     C_3   0.619981 0.943339 0.723317 0.297634
C15   C     C_3   0.617275 0.083151 0.718170 -0.546232
C16   C     C_R   0.604748 0.528958 0.073052 0.310068
C17   C     C_R   0.401861 0.455452 0.074827 -0.096817
C18   C     C_R   0.402216 0.454822 0.925853 -0.108303
C19   C     C_R   0.605059 0.527681 0.925517 0.267362
C20   C     C_3   0.676885 0.644492 0.919968 -0.494885
C21   C     C_3   0.675606 0.647211 0.079398 -0.507501
C22   C     C_R   0.500077 0.737989 0.500890 0.838463
C23   C     C_R   0.737164 0.488413 0.499624 0.813269
C24   C     C_R   0.107212 0.524478 0.769457 -0.276454
C25   C     C_R   0.045525 0.487333 0.891080 -0.220033
C26   C     C_R   0.935206 0.421060 0.882745 0.495755
C27   C     C_R   0.878890 0.408560 0.750215 -0.301707
C28   C     C_R   0.934956 0.458692 0.628383 0.046871
Cu1   Cu    Cu3+1 0.499990 0.499980 0.640670 0.938633
Cu2   Cu    Cu3+1 0.500010 0.500020 0.359330 0.938011
H1    H     H_    0.112928 0.518863 0.279876 0.159594
H2    H     H_    0.590085 0.126923 0.820138 0.159590
H3    H     H_    0.698592 0.126074 0.665329 0.195158
H4    H     H_    0.321742 0.420782 0.130475 0.146575
H5    H     H_    0.323294 0.418148 0.870698 0.157749
H6    H     H_    0.770167 0.631432 0.873452 0.216821
H7    H     H_    0.621988 0.717701 0.873152 0.211385
H8    H     H_    0.768586 0.635814 0.124651 0.209667
H9    H     H_    0.621211 0.724576 0.125493 0.206840
H10   H     H_    0.189626 0.579454 0.783549 0.183152
H11   H     H_    0.085470 0.507866 0.992683 0.144301
H12   H     H_    0.792025 0.360058 0.742178 0.146255
H13   H     H_    0.891027 0.505180 0.277184 0.194196
H14   H     H_    0.432639 0.107776 0.281675 0.158186
H15   H     H_    0.434553 0.882417 0.284293 0.157420
H16   H     H_    0.594994 0.907924 0.828647 0.051348
N1    N     N_R   0.500790 0.500930 0.147930 -0.195865
N2    N     N_R   0.500790 0.500890 0.852020 -0.197021
O1    O     O_R   0.500000 0.319640 0.618810 -0.581019
O2    O     O_R   0.500010 0.319680 0.381230 -0.591557
O3    O     O_R   0.319640 0.499980 0.618820 -0.596834
O4    O     O_R   0.319650 0.500020 0.381230 -0.591645
O5    O     O_R   0.499990 0.680320 0.618770 -0.578792
O6    O     O_R   0.500000 0.680360 0.381190 -0.587821
O7    O     O_R   0.680350 0.499980 0.618770 -0.580872
O8    O     O_R   0.680360 0.500020 0.381180 -0.584762
O9    O     O_3   0.725793 0.891342 0.658672 -0.552557
C29   C     C_3   0.826788 0.900824 0.750646 0.068994
H17   H     H_    0.803087 0.867268 0.857582 0.135465
H18   H     H_    0.859451 0.998166 0.759327 0.139626
C30   C     C_3   0.931701 0.822754 0.691969 -0.771676
H19   H     H_    0.961583 0.857268 0.587665 0.248092
H20   H     H_    0.011118 0.827159 0.764479 0.195278
H21   H     H_    0.900787 0.725318 0.680101 0.254510
O10   O     O_3   0.880072 0.384840 0.008441 -0.603206
C31   C     C_3   0.813531 0.272701 0.994653 0.031598
H22   H     H_    0.865543 0.202955 0.930958 0.133546
H23   H     H_    0.722364 0.289063 0.946879 0.140827
C32   C     C_3   0.790141 0.220542 0.140019 -0.774056
H24   H     H_    0.736017 0.286896 0.205306 0.261750
H25   H     H_    0.737425 0.132501 0.130927 0.196229
H26   H     H_    0.879099 0.203007 0.192283 0.248374

loop_
_geom_bond_atom_site_label_1
_geom_bond_atom_site_label_2
_ccdc_geom_bond_type
C30   H21   S    
C31   H23   S    
C23   O7    A    
C16   C21   S    
C17   H4    S    
C32   H26   S    
C1    C8    S    
C11   C13   A    
C9    C10   A    
C11   C22   S    
C19   C20   S    
C21   H9    S    
C7    C13   A    
Cu2   O8    S    
C10   H15   S    
C7    C15   S    
C17   C18   A    
C5    H13   S    
C15   H2    S    
C22   O6    A    
C25   C26   A    
Cu1   O1    S    
C13   C14   S    
C24   C25   A    
C20   H7    S    
Cu2   O6    S    
C27   H12   S    
C26   C27   A    
Cu1   Cu2   S    
Cu1   O5    S    
C29   C30   S    
C16   C19   A    
C5    C6    A    
C6    C23   S    
C16   N1    A    
C24   H10   S    
Cu1   O3    S    
C2    C3    A    
C22   O5    A    
O9    C29   S    
C32   H24   S    
C2    C24   A    
C30   H19   S    
Cu2   O2    S    
C31   C32   S    
C7    C8    A    
C10   C11   A    
Cu1   N2    S    
C29   H18   S    
C3    C4    A    
C4    H1    S    
Cu2   N1    S    
C23   O8    A    
C12   O3    A    
C31   H22   S    
C20   C21   S    
C18   H5    S    
C14   H16   S    
O10   C31   S    
C1    O2    A    
C25   H11   S    
C27   C28   A    
C32   H25   S    
C14   O9    S    
Cu2   O4    S    
C14   C15   S    
C4    C5    A    
C9    H14   S    
C2    C28   A    
C3    C12   S    
Cu1   O7    S    
C12   O4    A    
C29   H17   S    
C19   N2    A    
C26   O10   S    
C1    O1    A    
C15   H3    S    
C30   H20   S    
C6    C28   A    
C21   H8    S    
C17   N1    A    
C18   N2    A    
C8    C9    A    
C20   H6    S    
