data_str_m2_o4_o10_f0_pcu.sym.128
_audit_creation_date              2012-12-10T18:57:09-0500
_audit_creation_method            fapswitch 2.2
_symmetry_space_group_name_H-M    P1
_symmetry_Int_Tables_number       1
_space_group_crystal_system       triclinic
_cell_length_a                    8.723177
_cell_length_b                    10.862476
_cell_length_c                    9.584545
_cell_angle_alpha                 91.032571
_cell_angle_beta                  98.387201
_cell_angle_gamma                 91.010776
_cell_volume                      898.138812557

loop_
_atom_site_label
_atom_site_type_symbol
_atom_type_description
_atom_site_fract_x
_atom_site_fract_y
_atom_site_fract_z
_atom_type_partial_charge
C1    C     C_R   0.501205 0.262649 0.499315 0.829757
C2    C     C_R   0.516840 0.934121 0.376626 -0.208394
C3    C     C_R   0.494581 0.871102 0.499316 -0.060133
C4    C     C_R   0.459749 0.938878 0.615388 0.062669
C5    C     C_3   0.531653 0.936851 0.766452 -0.495150
C6    C     C_3   0.530866 0.076471 0.766855 0.112448
C7    C     C_R   0.628430 0.537451 0.091334 0.216757
C8    C     C_R   0.381093 0.446057 0.054804 0.051263
C9    C     C_R   0.381101 0.448574 0.906841 -0.105221
C10   C     C_R   0.629249 0.535948 0.944684 0.283741
C11   C     C_3   0.711785 0.657329 0.952157 -0.509731
C12   C     C_R   0.203856 0.500557 0.463673 0.886658
C13   C     C_3   0.710392 0.659094 0.110485 -0.494049
C14   C     C_R   0.500541 0.737650 0.500844 0.788743
C15   C     C_R   0.796189 0.500179 0.536524 0.894530
C16   C     C_2   0.037670 0.502956 0.444516 -0.363538
C17   C     C_2   0.962510 0.499329 0.556531 -0.348846
C18   C     C_R   0.461104 0.065886 0.614603 0.061193
C19   C     C_R   0.495913 0.129469 0.497350 -0.046494
C20   C     C_R   0.519976 0.062216 0.376474 -0.219899
Cu1   Cu    Cu3+1 0.499990 0.499980 0.640670 0.966117
Cu2   Cu    Cu3+1 0.500010 0.500020 0.359330 0.945548
H1    H     H_    0.976725 0.508504 0.337886 0.167711
H2    H     H_    0.285744 0.406509 0.836047 0.152082
H3    H     H_    0.829895 0.650496 0.922433 0.194999
H4    H     H_    0.638111 0.728264 0.897563 0.213322
H5    H     H_    0.827942 0.652855 0.172335 0.190882
H6    H     H_    0.637293 0.732499 0.146032 0.210892
H7    H     H_    0.023134 0.494943 0.663752 0.172570
H8    H     H_    0.549704 0.107802 0.284625 0.153984
H9    H     H_    0.539431 0.885231 0.282775 0.155308
H10   H     H_    0.452413 0.896087 0.834887 0.173846
H11   H     H_    0.650230 0.899082 0.778313 0.225108
H12   H     H_    0.449656 0.116402 0.833924 0.127085
N1    N     N_R   0.500980 0.500930 0.148050 -0.204796
N2    N     N_R   0.500990 0.500890 0.852140 -0.189273
O1    O     O_R   0.500000 0.319640 0.618810 -0.555116
O2    O     O_R   0.500020 0.319680 0.381230 -0.598345
O3    O     O_R   0.274830 0.499980 0.591380 -0.589285
O4    O     O_R   0.274850 0.500020 0.353800 -0.580106
O5    O     O_R   0.499980 0.680320 0.618770 -0.582342
O6    O     O_R   0.500000 0.680360 0.381190 -0.591770
O7    O     O_R   0.725150 0.499980 0.646200 -0.570296
O8    O     O_R   0.725170 0.500020 0.408620 -0.584464
Br1   Br    Br    0.739786 0.148472 0.800397 -0.554312
C21   C     C_R   0.255368 0.372153 0.100749 0.172730
C22   C     C_R   0.104150 0.417376 0.088252 -0.168876
C23   C     C_R   0.982016 0.340921 0.116509 -0.109410
C24   C     C_R   0.009343 0.218924 0.154928 -0.056710
C25   C     C_R   0.158119 0.171964 0.161021 -0.154200
C26   C     C_R   0.279726 0.247692 0.130831 -0.124462
H13   H     H_    0.081169 0.511350 0.056862 0.118128
H14   H     H_    0.866094 0.375902 0.108449 0.136080
H15   H     H_    0.914640 0.160171 0.177000 0.141187
H16   H     H_    0.178596 0.076352 0.186178 0.140698
H17   H     H_    0.392072 0.209040 0.126367 0.119180

loop_
_geom_bond_atom_site_label_1
_geom_bond_atom_site_label_2
_ccdc_geom_bond_type
C25   H16   S    
C12   O4    A    
C7    C10   A    
C13   H6    S    
C22   H13   S    
C6    Br1   S    
C9    N2    A    
C17   H7    S    
C19   C20   A    
Cu1   O3    S    
C1    O1    A    
C14   O6    A    
C5    H10   S    
Cu2   O4    S    
C12   O3    A    
C2    C3    A    
C8    C9    A    
C4    C18   A    
C9    H2    S    
Cu1   N2    S    
C20   H8    S    
Cu1   Cu2   S    
Cu2   N1    S    
C11   C13   S    
Cu2   O6    S    
C3    C14   S    
C7    N1    A    
C1    O2    A    
C14   O5    A    
Cu1   O5    S    
C5    C6    S    
C23   C24   A    
C15   O8    A    
C18   C19   A    
C16   H1    S    
C2    H9    S    
C23   H14   S    
C6    C18   S    
C8    C21   S    
C1    C19   S    
C10   C11   S    
C11   H3    S    
C15   O7    A    
C24   H15   S    
Cu2   O2    S    
C22   C23   A    
C12   C16   S    
C7    C13   S    
Cu1   O1    S    
C15   C17   S    
C26   H17   S    
C24   C25   A    
C21   C22   A    
C13   H5    S    
C10   N2    A    
C11   H4    S    
C25   C26   A    
Cu1   O7    S    
C4    C5    S    
C2    C20   A    
C21   C26   A    
Cu2   O8    S    
C3    C4    A    
C6    H12   S    
C16   C17   D    
C8    N1    A    
C5    H11   S    
