data_str_m2_o4_o5_f0_pcu.sym.203
_audit_creation_date              2012-12-10T19:08:07-0500
_audit_creation_method            fapswitch 2.2
_symmetry_space_group_name_H-M    P1
_symmetry_Int_Tables_number       1
_space_group_crystal_system       triclinic
_cell_length_a                    9.041198
_cell_length_b                    10.737332
_cell_length_c                    9.671228
_cell_angle_alpha                 89.324545
_cell_angle_beta                  89.676843
_cell_angle_gamma                 92.609603
_cell_volume                      937.810051934

loop_
_atom_site_label
_atom_site_type_symbol
_atom_type_description
_atom_site_fract_x
_atom_site_fract_y
_atom_site_fract_z
_atom_type_partial_charge
C1    C     C_R   0.499497 0.263001 0.500621 0.803129
C2    C     C_R   0.633961 0.939480 0.464473 -0.200588
C3    C     C_R   0.503360 0.870186 0.497090 -0.169122
C4    C     C_R   0.372818 0.930562 0.517538 0.040859
C5    C     C_3   0.262639 0.917087 0.633588 -0.101802
C6    C     C_3   0.261872 0.059813 0.633081 0.182041
C7    C     C_R   0.622478 0.542170 0.069702 0.007859
C8    C     C_R   0.387775 0.441747 0.076347 0.452775
C9    C     C_R   0.387898 0.439891 0.928493 0.175101
C10   C     C_R   0.621229 0.540725 0.925141 0.043059
C11   C     C_3   0.715622 0.656723 0.907827 0.241821
C12   C     C_R   0.221105 0.499438 0.500191 0.857176
C13   C     C_3   0.724778 0.660478 0.068108 0.144904
C14   C     C_R   0.501552 0.736956 0.499405 0.825403
C15   C     C_R   0.778895 0.500405 0.499828 0.813577
C16   C     C_1   0.065687 0.499391 0.500252 -0.149193
C17   C     C_1   0.934294 0.499759 0.499812 -0.201160
C18   C     C_R   0.373122 0.058944 0.517995 0.086600
C19   C     C_R   0.505189 0.129738 0.500119 -0.246633
C20   C     C_R   0.636937 0.069698 0.465106 0.406264
Cu1   Cu    Cu3+1 0.499990 0.499980 0.640670 0.945135
Cu2   Cu    Cu3+1 0.500010 0.500020 0.359330 0.941556
H1    H     H_    0.735223 0.892742 0.444532 0.149212
H2    H     H_    0.313478 0.880698 0.729672 0.110734
H3    H     H_    0.306767 0.103558 0.728839 0.059588
H4    H     H_    0.820652 0.638544 0.853077 0.125248
N1    N     N_R   0.500920 0.500930 0.147930 -0.239410
N2    N     N_R   0.500930 0.500890 0.852020 -0.220664
O1    O     O_R   0.500000 0.319640 0.618810 -0.599862
O2    O     O_R   0.500020 0.319680 0.381230 -0.592503
O3    O     O_R   0.288380 0.499980 0.618770 -0.596132
O4    O     O_R   0.288400 0.500020 0.381190 -0.548630
O5    O     O_R   0.499980 0.680320 0.618770 -0.532593
O6    O     O_R   0.500000 0.680360 0.381190 -0.611743
O7    O     O_R   0.711600 0.499980 0.618810 -0.566752
O8    O     O_R   0.711620 0.500020 0.381230 -0.587885
O9    O     O_3   0.770858 0.132495 0.437262 -0.710893
H5    H     H_    0.761332 0.223111 0.448839 0.324606
O10   O     O_3   0.641013 0.754980 0.845692 -0.701114
H6    H     H_    0.537767 0.753806 0.881632 0.330130
C21   C     C_3   0.881203 0.630042 0.122396 -0.364613
C22   C     C_3   0.005515 0.725409 0.082451 -0.874510
H7    H     H_    0.007483 0.745446 0.969693 0.239471
H8    H     H_    0.993829 0.813114 0.140163 0.264661
H9    H     H_    0.113699 0.687656 0.111106 0.258864
H10   H     H_    0.879434 0.623592 0.236474 0.228803
H11   H     H_    0.911625 0.537599 0.084072 0.196878
C23   C     C_3   0.659003 0.775123 0.138646 -0.273385
C24   C     C_3   0.709803 0.903378 0.078272 -0.777375
H12   H     H_    0.808770 0.899042 0.010828 0.276593
H13   H     H_    0.619683 0.942667 0.016159 0.245920
H14   H     H_    0.735914 0.969545 0.163079 0.245615
H15   H     H_    0.535982 0.767425 0.136581 0.192872
H16   H     H_    0.694664 0.773713 0.247643 0.203627
C25   C     C_3   0.116025 0.844077 0.598749 -0.315408
C26   C     C_3   0.071895 0.845739 0.445947 -0.733017
H17   H     H_    0.057004 0.942285 0.408245 0.303954
H18   H     H_    0.156840 0.801776 0.381689 0.232369
H19   H     H_    0.965975 0.790843 0.433231 0.203645
H20   H     H_    0.127822 0.745278 0.630468 0.175696
H21   H     H_    0.024641 0.879580 0.662327 0.216180
O11   O     O_3   0.129094 0.108549 0.587805 -0.688851
H22   H     H_    0.066844 0.116051 0.671822 0.328471
O12   O     O_3   0.271313 0.381259 0.144886 -0.734310
H23   H     H_    0.312906 0.333133 0.221341 0.366113
C27   C     C_3   0.266873 0.357891 0.863062 -0.296824
C28   C     C_3   0.116617 0.418030 0.865448 -0.776017
H24   H     H_    0.067128 0.409965 0.970290 0.268705
H25   H     H_    0.127305 0.518151 0.835151 0.248546
H26   H     H_    0.039921 0.368777 0.792919 0.232548
H27   H     H_    0.293979 0.329279 0.758347 0.238880
H28   H     H_    0.256048 0.267375 0.920111 0.175799

loop_
_geom_bond_atom_site_label_1
_geom_bond_atom_site_label_2
_ccdc_geom_bond_type
C14   O6    A    
C7    C10   A    
C23   H16   S    
C25   C26   S    
O11   H22   S    
Cu1   O7    S    
C1    O2    A    
C13   C23   S    
Cu1   O3    S    
C21   C22   S    
Cu2   O4    S    
C27   H27   S    
C26   H19   S    
C21   H10   S    
C28   H26   S    
C4    C18   A    
O12   H23   S    
C24   H14   S    
C14   O5    A    
C13   C21   S    
C2    C3    A    
C21   H11   S    
C25   H20   S    
C12   O4    A    
C11   O10   S    
C20   O9    S    
C11   C13   S    
C6    O11   S    
C1    O1    A    
O9    H5    S    
C3    C14   S    
C22   H8    S    
C8    O12   S    
C6    C18   S    
C5    C6    S    
C25   H21   S    
C15   O7    A    
C23   C24   S    
Cu1   N2    S    
C26   H18   S    
C27   C28   S    
Cu2   N1    S    
C12   O3    A    
C23   H15   S    
Cu2   O6    S    
C27   H28   S    
C1    C19   S    
C6    H3    S    
Cu1   O5    S    
C22   H7    S    
C2    C20   A    
C28   H24   S    
O10   H6    S    
C12   C16   S    
C15   O8    A    
C7    C13   S    
C7    N1    A    
C26   H17   S    
C19   C20   A    
C8    C9    A    
C15   C17   S    
C18   C19   A    
C10   C11   S    
C10   N2    A    
C2    H1    S    
C24   H12   S    
C8    N1    A    
C9    C27   S    
C5    H2    S    
Cu2   O2    S    
C11   H4    S    
C24   H13   S    
Cu1   Cu2   S    
Cu1   O1    S    
C9    N2    A    
C5    C25   S    
Cu2   O8    S    
C3    C4    A    
C16   C17   T    
C4    C5    S    
C28   H25   S    
C22   H9    S    
