data_str_m2_o4_o16_f0_pcu.sym.66
_audit_creation_date              2012-10-26T19:52:28-0400
_audit_creation_method            fapswitch 2.2
_symmetry_space_group_name_H-M    P1
_symmetry_Int_Tables_number       1
_space_group_crystal_system       triclinic
_cell_length_a                    9.553585
_cell_length_b                    10.847831
_cell_length_c                    13.457338
_cell_angle_alpha                 90.85019
_cell_angle_beta                  72.152098
_cell_angle_gamma                 90.623593
_cell_volume                      1327.36461219

loop_
_atom_site_label
_atom_site_type_symbol
_atom_type_description
_atom_site_fract_x
_atom_site_fract_y
_atom_site_fract_z
_atom_type_partial_charge
C1    C     C_R   0.499320 0.737550 0.503277 0.553265
C2    C     C_R   0.373898 0.512944 0.814497 0.009769
C3    C     C_R   0.365429 0.934476 0.528839 0.090893
C4    C     C_R   0.420899 0.498684 0.700200 0.544245
C5    C     C_R   0.495724 0.870425 0.515867 -0.003929
C6    C     C_R   0.621755 0.936975 0.518198 -0.159151
C7    C     C_R   0.621313 0.065608 0.517040 -0.160432
C8    C     C_R   0.495240 0.128836 0.512791 -0.000164
C9    C     C_R   0.365516 0.061456 0.526216 0.022549
C10   C     C_3   0.256850 0.062225 0.466607 -0.286033
C11   C     C_3   0.255146 0.922320 0.470706 -0.095651
C12   C     C_R   0.442768 0.524276 0.975874 0.015431
C13   C     C_R   0.962673 0.460342 0.414296 0.202026
C14   C     C_R   0.891274 0.548408 0.581540 -0.003331
C15   C     C_R   0.039677 0.547080 0.582046 0.033636
C16   C     C_R   0.498846 0.262121 0.501843 0.545625
C17   C     C_R   0.110621 0.463706 0.412994 0.175858
C18   C     C_3   0.139337 0.340643 0.361126 -0.281391
C19   C     C_3   0.978494 0.333947 0.367188 -0.267806
C20   C     C_R   0.579370 0.501095 0.299360 0.548332
C21   C     C_R   0.800023 0.437757 0.015667 0.000858
C22   C     C_R   0.625401 0.495544 0.183847 -0.026500
C23   C     C_R   0.465037 0.475323 0.873687 0.010071
C24   C     C_R   0.251753 0.586871 0.860848 -0.106651
C25   C     C_R   0.226980 0.633512 0.961072 -0.127617
C26   C     C_R   0.324673 0.609250 0.016996 0.002079
C27   C     C_1   0.893870 0.508326 0.158986 0.185477
C28   C     C_2   0.108472 0.870770 0.534476 0.238629
C29   C     C_2   0.952484 0.401703 0.953734 0.203747
C30   C     C_1   0.309861 0.687144 0.107774 0.205142
C31   C     C_R   0.546699 0.492827 0.028026 0.002016
C32   C     C_R   0.682404 0.437993 0.971746 0.054368
C33   C     C_R   0.692535 0.379737 0.876318 -0.104560
C34   C     C_R   0.581455 0.392637 0.831190 -0.132179
C35   C     C_R   0.515394 0.504658 0.135843 -0.144061
C36   C     C_R   0.772022 0.476820 0.120662 -0.056198
Cu1   Cu    Cu3+1 0.359330 0.500020 0.500010 0.986463
Cu2   Cu    Cu3+1 0.640670 0.499980 0.499990 0.955035
H1    H     H_    0.721849 0.114517 0.514009 0.131623
H2    H     H_    0.783003 0.319924 0.837330 0.171789
H3    H     H_    0.916053 0.263507 0.422887 0.131438
H4    H     H_    0.402674 0.515109 0.183713 0.153667
H5    H     H_    0.181414 0.617260 0.816446 0.173195
H6    H     H_    0.136651 0.696962 0.992055 0.143244
H7    H     H_    0.591042 0.340486 0.760288 0.142597
H8    H     H_    0.722714 0.890335 0.515059 0.141236
H9    H     H_    0.018840 0.866213 0.500811 0.096523
H10   H     H_    0.027758 0.367926 0.993152 0.123144
H11   H     H_    0.151626 0.105640 0.512837 0.140679
H12   H     H_    0.305839 0.096928 0.385923 0.119004
H13   H     H_    0.300148 0.876751 0.392959 0.129578
H14   H     H_    0.808095 0.586719 0.648194 0.144599
H15   H     H_    0.066569 0.583049 0.649343 0.174688
H16   H     H_    0.214954 0.346136 0.279970 0.133034
H17   H     H_    0.169857 0.273288 0.410941 0.144763
H18   H     H_    0.960981 0.329599 0.289510 0.150512
N1    N     N_R   0.852320 0.499070 0.499340 -0.246622
N2    N     N_R   0.148230 0.499110 0.499340 -0.244961
N3    N     N_1   0.992116 0.535817 0.188018 -0.323561
N4    N     N_1   0.297499 0.749933 0.180244 -0.313082
O1    O     O_R   0.381190 0.680360 0.500000 -0.479443
O2    O     O_2   0.997767 0.413783 0.859176 -0.537972
O3    O     O_R   0.618780 0.680320 0.499990 -0.504725
O4    O     O_R   0.323230 0.500000 0.650990 -0.486439
O5    O     O_R   0.560820 0.499960 0.650980 -0.520811
O6    O     O_R   0.381220 0.319680 0.500010 -0.498895
O7    O     O_R   0.618810 0.319640 0.500000 -0.517038
O8    O     O_R   0.439180 0.500040 0.349020 -0.508316
O9    O     O_R   0.676770 0.500000 0.349010 -0.480496
O10   O     O_2   0.088380 0.834522 0.623307 -0.512815

loop_
_geom_bond_atom_site_label_1
_geom_bond_atom_site_label_2
_ccdc_geom_bond_type
C19   H18   S    
Cu1   O1    S    
C24   C25   A    
C14   N1    A    
C28   H9    S    
C6    C7    A    
C3    C9    A    
C27   C36   S    
Cu2   N1    S    
C22   C36   A    
C9    C10   S    
C4    O4    A    
C2    C4    S    
Cu1   N2    S    
Cu2   O5    S    
C13   C17   A    
C17   N2    A    
C23   C34   A    
Cu1   O6    S    
C33   C34   A    
Cu2   O9    S    
C19   H3    S    
C7    C8    A    
C8    C16   S    
C34   H7    S    
C27   N3    T    
C32   C33   A    
C21   C36   A    
C22   C35   A    
C12   C23   A    
Cu1   Cu2   S    
C16   O6    A    
C11   C28   S    
C1    C5    S    
C5    C6    A    
C15   H15   S    
C25   H6    S    
C21   C32   A    
C20   C22   S    
C18   H17   S    
C26   C30   S    
C12   C31   A    
C2    C24   A    
C4    O5    A    
C15   N2    A    
C31   C35   A    
C20   O9    A    
C33   H2    S    
C3    C11   S    
C10   C11   S    
C18   H16   S    
C29   H10   S    
C1    O1    A    
C28   O10   D    
C10   H12   S    
Cu1   O8    S    
C1    O3    A    
Cu1   O4    S    
C11   H13   S    
Cu2   O7    S    
C29   O2    D    
C17   C18   S    
Cu2   O3    S    
C2    C23   A    
C16   O7    A    
C24   H5    S    
C7    H1    S    
C35   H4    S    
C18   C19   S    
C13   C19   S    
C6    H8    S    
C13   N1    A    
C25   C26   A    
C14   C15   A    
C10   H11   S    
C21   C29   S    
C20   O8    A    
C14   H14   S    
C31   C32   A    
C12   C26   A    
C8    C9    A    
C3    C5    A    
C30   N4    T    
