data_str_m2_o4_o14_f0_pcu.sym.84
_audit_creation_date              2012-12-10T18:59:18-0500
_audit_creation_method            fapswitch 2.2
_symmetry_space_group_name_H-M    P1
_symmetry_Int_Tables_number       1
_space_group_crystal_system       triclinic
_cell_length_a                    10.786844
_cell_length_b                    10.807455
_cell_length_c                    9.55894
_cell_angle_alpha                 90.420414
_cell_angle_beta                  88.366562
_cell_angle_gamma                 91.489942
_cell_volume                      1113.51157883

loop_
_atom_site_label
_atom_site_type_symbol
_atom_type_description
_atom_site_fract_x
_atom_site_fract_y
_atom_site_fract_z
_atom_type_partial_charge
C1    C     C_R   0.494072 0.262002 0.499443 0.836931
C2    C     C_R   0.067963 0.609505 0.558376 0.076348
C3    C     C_R   0.129171 0.503628 0.507910 -0.083488
C4    C     C_R   0.063495 0.403730 0.450508 -0.218828
C5    C     C_R   0.935292 0.404878 0.446382 -0.004788
C6    C     C_R   0.872511 0.511364 0.490919 -0.138263
C7    C     C_R   0.482521 0.063515 0.624835 0.034033
C8    C     C_R   0.474438 0.128064 0.499018 -0.131497
C9    C     C_R   0.438201 0.059660 0.377817 0.164088
C10   C     C_R   0.437978 0.929811 0.381833 -0.170911
C11   C     C_R   0.468393 0.868340 0.504414 -0.151911
C12   C     C_R   0.262646 0.499425 0.502230 0.784179
C13   C     C_R   0.475062 0.936522 0.628385 0.073947
C14   C     C_3   0.556876 0.928604 0.751891 -0.066429
C15   C     C_3   0.568276 0.071375 0.746501 0.123682
C16   C     C_R   0.609258 0.508720 0.070011 0.216790
C17   C     C_R   0.393473 0.479639 0.077091 -0.069471
C18   C     C_R   0.393446 0.480028 0.928815 -0.096854
C19   C     C_R   0.608747 0.508161 0.922565 0.243773
C20   C     C_3   0.704137 0.609581 0.910395 -0.525984
C21   C     C_3   0.703305 0.613625 0.069391 -0.272416
C22   C     C_R   0.489869 0.736648 0.501270 0.829360
C23   C     C_R   0.737629 0.506328 0.497760 0.813832
C24   C     C_R   0.132382 0.709362 0.622982 -0.236446
C25   C     C_R   0.071618 0.818193 0.658049 0.032520
C26   C     C_R   0.950273 0.833218 0.616991 -0.202999
C27   C     C_R   0.887038 0.737474 0.547766 -0.053171
C28   C     C_R   0.939845 0.618824 0.535117 0.042166
Cu1   Cu    Cu3+1 0.499990 0.499980 0.640670 0.939726
Cu2   Cu    Cu3+1 0.500010 0.500020 0.359330 0.958042
H1    H     H_    0.112676 0.323639 0.411292 0.137255
H2    H     H_    0.644569 0.880441 0.725334 0.142326
H3    H     H_    0.306452 0.463905 0.133385 0.161282
H4    H     H_    0.306727 0.465195 0.876706 0.161854
H5    H     H_    0.791592 0.576681 0.859726 0.209798
H6    H     H_    0.669013 0.694308 0.862789 0.208631
H7    H     H_    0.667027 0.700672 0.115427 0.185682
H8    H     H_    0.229764 0.704588 0.645589 0.153358
H9    H     H_    0.908875 0.923264 0.628087 0.163292
H10   H     H_    0.420107 0.877065 0.287308 0.166622
N1    N     N_R   0.500790 0.500930 0.147930 -0.196952
N2    N     N_R   0.500790 0.500890 0.852020 -0.197063
O1    O     O_R   0.500000 0.319640 0.618810 -0.576965
O2    O     O_R   0.500010 0.319680 0.381230 -0.573713
O3    O     O_R   0.319640 0.499980 0.618820 -0.598806
O4    O     O_R   0.319650 0.500020 0.381230 -0.590967
O5    O     O_R   0.499990 0.680320 0.618770 -0.593983
O6    O     O_R   0.500000 0.680360 0.381190 -0.568946
O7    O     O_R   0.680350 0.499980 0.618770 -0.574833
O8    O     O_R   0.680360 0.500020 0.381180 -0.570670
C29   C     C_3   0.515813 0.143074 0.873579 -0.788216
H11   H     H_    0.533272 0.243886 0.861256 0.245276
H12   H     H_    0.414186 0.127209 0.888037 0.245202
H13   H     H_    0.563197 0.114462 0.969123 0.225262
C30   C     C_1   0.694902 0.115194 0.706268 0.237502
N3    N     N_1   0.794307 0.149875 0.675736 -0.294451
C31   C     C_1   0.823764 0.578949 0.123296 0.337047
N4    N     N_1   0.919504 0.552400 0.163741 -0.293096
C32   C     C_1   0.137568 0.919951 0.722851 0.245216
N5    N     N_1   0.189866 0.002256 0.774715 -0.304632
C33   C     C_1   0.795968 0.776144 0.451312 0.218619
N6    N     N_1   0.727909 0.810686 0.369900 -0.289603
C34   C     C_1   0.870153 0.297132 0.391555 0.281110
N7    N     N_1   0.817952 0.211144 0.347358 -0.272232
C35   C     C_3   0.403273 0.119773 0.243004 -0.809230
H14   H     H_    0.328433 0.186699 0.263795 0.232049
H15   H     H_    0.485563 0.167482 0.194125 0.252412
H16   H     H_    0.368163 0.050845 0.165912 0.216519
C36   C     C_3   0.487005 0.872571 0.880077 -0.817756
H17   H     H_    0.468353 0.772367 0.863346 0.253463
H18   H     H_    0.544362 0.884094 0.974104 0.230389
H19   H     H_    0.396084 0.915755 0.900260 0.255987

loop_
_geom_bond_atom_site_label_1
_geom_bond_atom_site_label_2
_ccdc_geom_bond_type
C36   H19   S    
C22   O6    A    
C30   N3    T    
Cu2   N1    S    
C21   C31   S    
Cu1   Cu2   S    
C15   C29   S    
Cu1   N2    S    
C1    C8    S    
C18   H4    S    
C9    C10   A    
C1    O2    A    
C24   H8    S    
C19   C20   S    
C19   N2    A    
C29   H13   S    
C25   C32   S    
C35   H16   S    
C7    C15   S    
C17   C18   A    
C31   N4    T    
C32   N5    T    
Cu1   O7    S    
C13   C14   S    
Cu1   O1    S    
C4    C5    A    
C11   C13   A    
Cu2   O2    S    
C26   C27   A    
C36   H17   S    
C17   H3    S    
Cu1   O5    S    
C16   C19   A    
C5    C6    A    
C6    C23   S    
Cu2   O6    S    
C25   C26   A    
C1    O1    A    
C22   O5    A    
C2    C3    A    
C18   N2    A    
C2    C24   A    
C33   N6    T    
Cu2   O8    S    
C14   C36   S    
C9    C35   S    
C26   H9    S    
C23   O7    A    
C4    H1    S    
C7    C8    A    
C10   C11   A    
C3    C4    A    
C20   H6    S    
C7    C13   A    
C21   H7    S    
C24   C25   A    
C5    C34   S    
C11   C22   S    
C10   H10   S    
C35   H14   S    
C14   H2    S    
C27   C28   A    
C36   H18   S    
C14   C15   S    
C12   O3    A    
C23   O8    A    
C2    C28   A    
C3    C12   S    
C27   C33   S    
C17   N1    A    
C29   H12   S    
C20   C21   S    
C34   N7    T    
C20   H5    S    
C16   C21   S    
C16   N1    A    
Cu2   O4    S    
C6    C28   A    
C29   H11   S    
Cu1   O3    S    
C8    C9    A    
C35   H15   S    
C12   O4    A    
C15   C30   S    
