data_str_m2_o4_o10_f0_pcu.sym.226
_audit_creation_date              2012-12-10T18:57:12-0500
_audit_creation_method            fapswitch 2.2
_symmetry_space_group_name_H-M    P1
_symmetry_Int_Tables_number       1
_space_group_crystal_system       triclinic
_cell_length_a                    8.715327
_cell_length_b                    10.767412
_cell_length_c                    9.550913
_cell_angle_alpha                 89.903119
_cell_angle_beta                  97.888472
_cell_angle_gamma                 91.120022
_cell_volume                      887.620759618

loop_
_atom_site_label
_atom_site_type_symbol
_atom_type_description
_atom_site_fract_x
_atom_site_fract_y
_atom_site_fract_z
_atom_type_partial_charge
C1    C     C_R   0.495046 0.262775 0.499382 0.877099
C2    C     C_R   0.617400 0.557559 0.940991 0.266192
C3    C     C_3   0.663694 0.691634 0.940845 -0.520043
C4    C     C_R   0.203802 0.497910 0.463775 0.898974
C5    C     C_3   0.663603 0.691609 0.099856 -0.494857
C6    C     C_R   0.505029 0.737671 0.500337 0.807795
C7    C     C_R   0.795849 0.495039 0.536136 0.857398
C8    C     C_2   0.037766 0.494669 0.443747 -0.364502
C9    C     C_2   0.961683 0.489458 0.555808 -0.384556
C10   C     C_R   0.633972 0.069631 0.520965 -0.028875
C11   C     C_R   0.493644 0.129759 0.497269 -0.171708
C12   C     C_R   0.361588 0.930698 0.456556 -0.254211
C13   C     C_R   0.356629 0.061222 0.453241 0.479241
C14   C     C_3   0.159557 0.108345 0.280930 -0.293473
C15   C     C_3   0.927173 0.783371 0.580406 -0.277588
C16   C     C_R   0.502805 0.871267 0.497246 -0.201087
C17   C     C_R   0.640583 0.941937 0.517227 0.048778
C18   C     C_3   0.773353 0.942389 0.636281 0.336459
C19   C     C_3   0.759866 0.082683 0.642107 -0.447655
C20   C     C_R   0.617354 0.557595 0.088221 0.255541
C21   C     C_R   0.392815 0.432824 0.061137 -0.076440
C22   C     C_R   0.392790 0.432835 0.912246 -0.077347
Cu1   Cu    Cu3+1 0.499990 0.499980 0.640670 0.941026
Cu2   Cu    Cu3+1 0.500010 0.500020 0.359330 0.942684
H1    H     H_    0.977925 0.499016 0.336238 0.170339
H2    H     H_    0.572146 0.750716 0.133622 0.224477
H3    H     H_    0.021542 0.485251 0.663312 0.173191
H4    H     H_    0.245920 0.141338 0.212642 0.145382
H5    H     H_    0.055737 0.166703 0.256943 0.188360
H6    H     H_    0.122935 0.010683 0.254672 0.165594
H7    H     H_    0.842684 0.747264 0.491440 0.156611
H8    H     H_    0.911309 0.736030 0.681234 0.143661
H9    H     H_    0.044912 0.761864 0.556859 0.184731
H10   H     H_    0.717146 0.115852 0.739738 0.156154
H11   H     H_    0.304284 0.380329 0.845524 0.144070
H12   H     H_    0.781137 0.705885 0.909943 0.185639
H13   H     H_    0.572388 0.750841 0.883890 0.220451
H14   H     H_    0.255346 0.876232 0.432971 0.156654
H15   H     H_    0.748505 0.895099 0.734840 0.072031
H16   H     H_    0.861796 0.135319 0.612672 0.231316
H17   H     H_    0.304368 0.380285 0.105943 0.136405
H18   H     H_    0.780898 0.705857 0.160538 0.191317
N1    N     N_R   0.500980 0.500930 0.148050 -0.187216
N2    N     N_R   0.500990 0.500890 0.852140 -0.187569
O1    O     O_R   0.500000 0.319640 0.618810 -0.583809
O2    O     O_3   0.916010 0.912746 0.591183 -0.541545
O3    O     O_R   0.500020 0.319680 0.381230 -0.583930
O4    O     O_R   0.274830 0.499980 0.591380 -0.579686
O5    O     O_R   0.274850 0.500020 0.353800 -0.590950
O6    O     O_R   0.499980 0.680320 0.618770 -0.585238
O7    O     O_R   0.500000 0.680360 0.381190 -0.580958
O8    O     O_R   0.725150 0.499980 0.646200 -0.593453
O9    O     O_R   0.725170 0.500020 0.408620 -0.578867
O10   O     O_3   0.217005 0.121559 0.425558 -0.572007

loop_
_geom_bond_atom_site_label_1
_geom_bond_atom_site_label_2
_ccdc_geom_bond_type
C18   H15   S    
C15   H7    S    
Cu1   O1    S    
C6    O7    A    
C10   C19   S    
C10   C17   A    
C1    C11   S    
C4    O5    A    
C4    C8    S    
Cu2   O7    S    
C22   H11   S    
C2    C3    S    
C15   H8    S    
C5    C20   S    
C21   C22   A    
C6    O6    A    
C8    H1    S    
C11   C13   A    
C1    O1    A    
Cu1   O8    S    
C16   C17   A    
C3    H12   S    
C14   H6    S    
C21   H17   S    
C18   O2    S    
C14   O10   S    
C7    O8    A    
C17   C18   S    
C12   H14   S    
C10   C11   A    
C7    O9    A    
Cu1   Cu2   S    
C2    C20   A    
C5    H2    S    
C20   N1    A    
C18   C19   S    
C12   C13   A    
C9    H3    S    
C5    H18   S    
C4    O4    A    
C13   O10   S    
C19   H16   S    
Cu2   O5    S    
C7    C9    S    
Cu2   N1    S    
C1    O3    A    
Cu1   O6    S    
Cu1   O4    S    
C14   H5    S    
C15   O2    S    
C14   H4    S    
Cu2   O9    S    
C21   N1    A    
Cu2   O3    S    
C6    C16   S    
C15   H9    S    
C22   N2    A    
Cu1   N2    S    
C12   C16   A    
C3    H13   S    
C2    N2    A    
C8    C9    D    
C3    C5    S    
C19   H10   S    
