data_str_m2_o4_o17_f0_pcu.sym.27
_audit_creation_date              2012-10-26T19:52:45-0400
_audit_creation_method            fapswitch 2.2
_symmetry_space_group_name_H-M    P1
_symmetry_Int_Tables_number       1
_space_group_crystal_system       triclinic
_cell_length_a                    15.02493
_cell_length_b                    10.822478
_cell_length_c                    9.578373
_cell_angle_alpha                 90.008649
_cell_angle_beta                  90.964189
_cell_angle_gamma                 90.710906
_cell_volume                      1557.16975045

loop_
_atom_site_label
_atom_site_type_symbol
_atom_type_description
_atom_site_fract_x
_atom_site_fract_y
_atom_site_fract_z
_atom_type_partial_charge
C1    C     C_R   0.496822 0.262616 0.500022 0.540559
C2    C     C_R   0.185552 0.382363 0.541725 -0.000222
C3    C     C_R   0.232646 0.489582 0.498419 0.005444
C4    C     C_R   0.329145 0.495667 0.499233 0.531933
C5    C     C_R   0.188104 0.595918 0.457668 -0.148499
C6    C     C_R   0.483795 0.063450 0.623402 0.010348
C7    C     C_R   0.482972 0.130231 0.499679 -0.012393
C8    C     C_R   0.461577 0.068150 0.375173 -0.158908
C9    C     C_R   0.457227 0.938515 0.370568 -0.014015
C10   C     C_R   0.478424 0.870937 0.495597 0.012256
C11   C     C_R   0.482008 0.936655 0.621439 0.007660
C12   C     C_R   0.908810 0.611058 0.459259 0.031919
C13   C     C_3   0.543434 0.929384 0.745430 -0.273727
C14   C     C_3   0.545532 0.069663 0.746653 -0.262221
C15   C     C_R   0.576088 0.525749 0.075165 0.160589
C16   C     C_R   0.494193 0.737681 0.498871 0.541015
C17   C     C_R   0.430673 0.447405 0.069852 0.109068
C18   C     C_R   0.428830 0.457885 0.921751 0.013527
C19   C     C_R   0.576397 0.524113 0.928760 0.157697
C20   C     C_3   0.635381 0.635672 0.923809 -0.279482
C21   C     C_3   0.635719 0.636468 0.082910 -0.282622
C22   C     C_R   0.670796 0.502504 0.500931 0.546535
C23   C     C_R   0.946702 0.288666 0.583836 -0.139056
C24   C     C_R   0.814394 0.614669 0.459901 -0.001553
C25   C     C_R   0.767145 0.507509 0.502374 0.004294
C26   C     C_R   0.811245 0.401175 0.544795 -0.148186
C27   C     C_R   0.903471 0.396758 0.543485 0.008574
C28   C     C_R   0.952895 0.501020 0.500612 0.043582
C29   C     C_3   0.764211 0.732201 0.421865 -0.278766
C30   C     C_3   0.765179 0.822808 0.544051 -0.446140
C31   C     C_3   0.431910 0.880992 0.230360 -0.254777
C32   C     C_3   0.341605 0.815574 0.234147 -0.419913
C33   C     C_3   0.357109 0.369092 0.133598 -0.259298
C34   C     C_R   0.039025 0.282734 0.582825 -0.136313
C35   C     C_3   0.336026 0.249349 0.052849 -0.495980
C36   C     C_3   0.235942 0.266641 0.585992 -0.279835
C37   C     C_3   0.237474 0.171703 0.468129 -0.445198
C38   C     C_R   0.090964 0.385433 0.541585 0.031612
C39   C     C_R   0.046709 0.495190 0.499795 0.043487
C40   C     C_R   0.096027 0.599753 0.457889 0.009759
C41   C     C_R   0.052935 0.707942 0.417724 -0.139551
C42   C     C_R   0.960718 0.713798 0.418252 -0.136069
Cu1   Cu    Cu3+1 0.500000 0.499980 0.640670 0.921462
Cu2   Cu    Cu3+1 0.500000 0.500020 0.359330 0.902431
H1    H     H_    0.509764 0.889543 0.837890 0.133145
H2    H     H_    0.225630 0.677684 0.428925 0.093725
H3    H     H_    0.090797 0.788757 0.385753 0.103786
H4    H     H_    0.931623 0.800186 0.386342 0.112264
H5    H     H_    0.451136 0.120674 0.280193 0.129070
H6    H     H_    0.735696 0.777998 0.637089 0.151256
H7    H     H_    0.834032 0.853727 0.570861 0.149315
H8    H     H_    0.725252 0.905131 0.516018 0.133927
H9    H     H_    0.791842 0.776130 0.327104 0.125378
H10   H     H_    0.693703 0.713290 0.393150 0.166749
H11   H     H_    0.344644 0.734373 0.303708 0.187034
H12   H     H_    0.513409 0.109984 0.839622 0.135952
H13   H     H_    0.289876 0.879695 0.271271 0.132600
H14   H     H_    0.322624 0.782988 0.127687 0.134100
H15   H     H_    0.427197 0.952874 0.147655 0.118363
H16   H     H_    0.483677 0.818068 0.193869 0.166498
H17   H     H_    0.608641 0.888702 0.720149 0.126638
H18   H     H_    0.296958 0.268068 0.955995 0.139080
H19   H     H_    0.398381 0.201013 0.026575 0.145760
H20   H     H_    0.295079 0.186534 0.118102 0.135817
H21   H     H_    0.376849 0.336252 0.237144 0.214920
H22   H     H_    0.295579 0.424396 0.141390 0.145051
H23   H     H_    0.611737 0.109951 0.721029 0.136512
H24   H     H_    0.773002 0.320583 0.576943 0.104058
H25   H     H_    0.908883 0.207988 0.616282 0.104794
H26   H     H_    0.273774 0.210389 0.377901 0.146802
H27   H     H_    0.272309 0.087494 0.504746 0.145329
H28   H     H_    0.169073 0.145076 0.433461 0.149007
H29   H     H_    0.305816 0.287415 0.617068 0.164472
H30   H     H_    0.206878 0.225506 0.681285 0.126588
H31   H     H_    0.371373 0.426556 0.862104 0.132475
H32   H     H_    0.701492 0.614958 0.879618 0.132377
H33   H     H_    0.601429 0.716007 0.876834 0.137601
H34   H     H_    0.701873 0.614381 0.129539 0.132875
H35   H     H_    0.603832 0.718643 0.127832 0.125713
H36   H     H_    0.068232 0.196376 0.614657 0.112832
N1    N     N_R   0.500570 0.500930 0.147930 -0.231353
N2    N     N_R   0.500570 0.500890 0.852020 -0.247135
O1    O     O_R   0.500000 0.319640 0.618810 -0.501000
O2    O     O_R   0.500010 0.319680 0.381230 -0.520821
O3    O     O_R   0.370250 0.499950 0.618800 -0.515008
O4    O     O_R   0.370260 0.499990 0.381220 -0.532439
O5    O     O_R   0.499990 0.680320 0.618770 -0.493241
O6    O     O_R   0.500000 0.680360 0.381190 -0.515150
O7    O     O_R   0.629740 0.500010 0.618780 -0.496486
O8    O     O_R   0.629750 0.500050 0.381200 -0.500259

loop_
_geom_bond_atom_site_label_1
_geom_bond_atom_site_label_2
_ccdc_geom_bond_type
C14   H12   S    
C30   H7    S    
C18   H31   S    
Cu1   O1    S    
C41   C42   A    
C23   H25   S    
C19   C20   S    
C32   H14   S    
C33   H21   S    
C7    C8    A    
C15   N1    A    
C1    O2    A    
C15   C19   A    
C26   C27   A    
Cu1   O7    S    
C20   H33   S    
C12   C28   A    
C36   C37   S    
C38   C39   A    
C33   C35   S    
C4    O4    A    
C29   H10   S    
C20   H32   S    
C31   H15   S    
C24   C29   S    
C12   C42   A    
C13   C14   S    
C34   H36   S    
C8    C9    A    
C22   C25   S    
C21   H34   S    
C16   O5    A    
C14   H23   S    
C35   H20   S    
C23   C27   A    
C19   N2    A    
C9    C10   A    
C32   H11   S    
C30   H6    S    
C34   C38   A    
C37   H26   S    
C17   C33   S    
C32   H13   S    
Cu2   O4    S    
C33   H22   S    
C41   H3    S    
Cu1   O3    S    
C24   C25   A    
Cu2   N1    S    
C10   C11   A    
C39   C40   A    
C4    O3    A    
C28   C39   A    
C3    C5    A    
C25   C26   A    
C31   H16   S    
Cu1   Cu2   S    
C29   C30   S    
C6    C14   S    
C2    C38   A    
C31   C32   S    
C23   C34   A    
C21   H35   S    
C17   C18   A    
C22   O8    A    
C42   H4    S    
C36   H30   S    
C40   C41   A    
C37   H27   S    
C5    C40   A    
C3    C4    S    
C6    C11   A    
Cu2   O8    S    
C2    C36   S    
C30   H8    S    
C1    C7    S    
Cu2   O2    S    
C6    C7    A    
C1    O1    A    
C5    H2    S    
C12   C24   A    
Cu1   O5    S    
C2    C3    A    
C26   H24   S    
C10   C16   S    
C13   H1    S    
C11   C13   S    
C29   H9    S    
C18   N2    A    
C22   O7    A    
C35   H18   S    
C17   N1    A    
C36   H29   S    
C9    C31   S    
C15   C21   S    
C13   H17   S    
C20   C21   S    
C37   H28   S    
C27   C28   A    
C16   O6    A    
Cu1   N2    S    
C35   H19   S    
Cu2   O6    S    
C8    H5    S    
