data_str_m2_o1_o8_f0_pcu.sym.76
_audit_creation_date              2012-10-26T20:07:49-0400
_audit_creation_method            fapswitch 2.2
_symmetry_space_group_name_H-M    P1
_symmetry_Int_Tables_number       1
_space_group_crystal_system       triclinic
_cell_length_a                    9.682343
_cell_length_b                    10.784506
_cell_length_c                    16.943538
_cell_angle_alpha                 85.977126
_cell_angle_beta                  93.889402
_cell_angle_gamma                 89.896535
_cell_volume                      1760.76988834

loop_
_atom_site_label
_atom_site_type_symbol
_atom_type_description
_atom_site_fract_x
_atom_site_fract_y
_atom_site_fract_z
_atom_type_partial_charge
C1    C     C_R   0.499561 0.263135 0.497376 0.591771
C2    C     C_R   0.069482 0.589902 0.456437 0.141325
C3    C     C_R   0.516915 0.495130 0.650761 0.561462
C4    C     C_R   0.482501 0.501914 0.348412 0.569774
C5    C     C_R   0.523262 0.490241 0.737531 -0.004610
C6    C     C_R   0.478312 0.506271 0.260226 0.009871
C7    C     C_R   0.459091 0.587705 0.771232 -0.096180
C8    C     C_R   0.595143 0.458891 0.227355 -0.120543
C9    C     C_R   0.443020 0.583975 0.852436 0.021164
C10   C     C_R   0.618197 0.482909 0.147248 0.000049
C11   C     C_R   0.505498 0.486349 0.902456 0.131274
C12   C     C_R   0.500201 0.736848 0.501854 0.583788
C13   C     C_R   0.528341 0.564988 0.100045 0.199483
C14   C     C_R   0.571470 0.386859 0.869527 0.032784
C15   C     C_R   0.415493 0.619639 0.133361 0.033248
C16   C     C_R   0.572650 0.384400 0.785653 -0.017702
C17   C     C_R   0.376941 0.572765 0.208970 -0.045515
C18   C     C_R   0.421306 0.067307 0.436667 -0.005084
C19   C     C_R   0.577546 0.932450 0.561940 -0.004606
C20   C     C_2   0.739900 0.427040 0.113942 0.228987
C21   C     C_2   0.350107 0.675862 0.882958 0.309835
C22   C     C_2   0.635532 0.286117 0.924928 0.245523
C23   C     C_R   0.422068 0.937915 0.442043 -0.155844
C24   C     C_2   0.341248 0.728089 0.090562 0.221883
C25   C     C_3   0.609147 0.265489 0.747725 -0.266215
C26   C     C_3   0.501251 0.164366 0.761891 -0.403226
C27   C     C_3   0.226346 0.583257 0.228316 -0.304369
C28   C     C_3   0.130858 0.515593 0.169800 -0.401037
C29   C     C_2   0.341545 0.131293 0.367551 0.230068
C30   C     C_2   0.658526 0.869142 0.630941 0.243547
C31   C     C_3   0.154553 0.306944 0.596656 -0.232838
C32   C     C_3   0.146683 0.183877 0.556343 -0.374153
C33   C     C_3   0.843359 0.672214 0.388308 -0.232789
C34   C     C_R   0.575352 0.061481 0.556896 -0.174152
C35   C     C_3   0.869987 0.639883 0.304244 -0.456336
C36   C     C_2   0.863115 0.341479 0.610312 0.256612
C37   C     C_2   0.139259 0.696898 0.417358 0.245600
C38   C     C_R   0.499862 0.870625 0.503204 0.034340
C39   C     C_R   0.499223 0.129118 0.495454 0.024998
C40   C     C_R   0.078373 0.412039 0.546334 0.109448
C41   C     C_R   0.920948 0.584607 0.451134 0.133582
C42   C     C_R   0.930829 0.418217 0.549361 0.149786
Cu1   Cu    Cu3+1 0.640660 0.500020 0.500000 0.993891
Cu2   Cu    Cu3+1 0.359340 0.499980 0.500000 0.958063
H1    H     H_    0.669536 0.402604 0.264934 0.186643
H2    H     H_    0.398061 0.196833 0.735710 0.139836
H3    H     H_    0.530235 0.079440 0.733330 0.151261
H4    H     H_    0.612677 0.280876 0.682787 0.145261
H5    H     H_    0.713965 0.231446 0.769086 0.218396
H6    H     H_    0.136301 0.555157 0.107947 0.144371
H7    H     H_    0.159429 0.415471 0.172559 0.206209
H8    H     H_    0.022106 0.523308 0.185636 0.166529
H9    H     H_    0.205835 0.538489 0.286446 0.188004
H10   H     H_    0.195451 0.682362 0.228398 0.115119
H11   H     H_    0.266413 0.079512 0.332710 0.125912
H12   H     H_    0.412986 0.663512 0.732731 0.190283
H13   H     H_    0.730999 0.922289 0.666645 0.129834
H14   H     H_    0.046796 0.136773 0.564287 0.209607
H15   H     H_    0.159010 0.199063 0.491750 0.189825
H16   H     H_    0.229919 0.120002 0.583093 0.138316
H17   H     H_    0.262636 0.327686 0.612022 0.194566
H18   H     H_    0.112680 0.293280 0.656015 0.115972
H19   H     H_    0.973005 0.672954 0.287977 0.139262
H20   H     H_    0.864013 0.537931 0.299309 0.171889
H21   H     H_    0.791363 0.686149 0.261118 0.152744
H22   H     H_    0.732255 0.672971 0.391214 0.201630
H23   H     H_    0.365570 0.888765 0.396520 0.122937
H24   H     H_    0.870943 0.770359 0.396260 0.182404
H25   H     H_    0.841967 0.380517 0.665481 0.109608
H26   H     H_    0.220134 0.683494 0.378114 0.113526
H27   H     H_    0.629487 0.109810 0.603126 0.151667
H28   H     H_    0.766539 0.454943 0.054135 0.152500
H29   H     H_    0.301316 0.653743 0.937776 0.155295
H30   H     H_    0.592703 0.263169 0.981638 0.153138
H31   H     H_    0.237062 0.752737 0.103328 0.112431
H32   H     H_    0.494180 0.139081 0.826034 0.201945
N1    N     N_2   0.497000 0.481802 0.985929 -0.297935
N2    N     N_2   0.537899 0.578024 0.016817 -0.204113
N3    N     N_R   0.852070 0.500030 0.499980 -0.255292
N4    N     N_R   0.147930 0.499970 0.500020 -0.262836
O1    O     O_R   0.618740 0.319660 0.500000 -0.458789
O2    O     O_2   0.324157 0.775680 0.846290 -0.479386
O3    O     O_2   0.739887 0.231417 0.909865 -0.494133
O4    O     O_2   0.399594 0.796507 0.043070 -0.457049
O5    O     O_2   0.360956 0.239999 0.346789 -0.492136
O6    O     O_2   0.643333 0.759452 0.650636 -0.490387
O7    O     O_2   0.838172 0.232603 0.601405 -0.565981
O8    O     O_2   0.110807 0.802881 0.431886 -0.543259
O9    O     O_R   0.381260 0.680340 0.500000 -0.494839
O10   O     O_R   0.381170 0.319630 0.500010 -0.501693
O11   O     O_R   0.618830 0.680370 0.499990 -0.495379
O12   O     O_R   0.631780 0.498870 0.613920 -0.477842
O13   O     O_R   0.368220 0.501130 0.386080 -0.502347
O14   O     O_R   0.394210 0.498840 0.613930 -0.527808
O15   O     O_R   0.605790 0.501160 0.386070 -0.532169
O16   O     O_2   0.812139 0.348925 0.152887 -0.510507

loop_
_geom_bond_atom_site_label_1
_geom_bond_atom_site_label_2
_ccdc_geom_bond_type
C1    O10   A    
C31   H17   S    
C37   O8    D    
C36   C42   S    
C32   H14   S    
Cu1   Cu2   S    
C27   H10   S    
N1    N2    D    
C11   C14   A    
C35   H21   S    
C2    C41   A    
Cu1   N3    S    
C30   H13   S    
C21   H29   S    
C31   C40   S    
C7    C9    A    
C23   H23   S    
C8    H1    S    
C5    C16   A    
Cu2   O13   S    
C12   O11   A    
C33   C35   S    
C28   H6    S    
C10   C20   S    
C26   H32   S    
C40   N4    A    
C35   H20   S    
C30   O6    D    
C11   N1    S    
C29   O5    D    
C40   C42   A    
C20   O16   D    
C42   N3    A    
C37   H26   S    
C31   H18   S    
C7    H12   S    
C33   H22   S    
C36   O7    D    
C34   C39   A    
C17   C27   S    
C12   O9    A    
Cu2   N4    S    
Cu2   O14   S    
C4    C6    S    
C5    C7    A    
C1    C39   S    
C6    C8    A    
C29   H11   S    
C25   C26   S    
C19   C34   A    
Cu1   O11   S    
C18   C23   A    
C3    O12   A    
C18   C39   A    
C19   C38   A    
C4    O15   A    
Cu1   O15   S    
C31   C32   S    
C18   C29   S    
C9    C11   A    
C25   H4    S    
C26   H3    S    
C15   C24   S    
C13   C15   A    
Cu1   O1    S    
C14   C16   A    
C32   H16   S    
Cu2   O10   S    
C36   H25   S    
C16   C25   S    
C15   C17   A    
C6    C17   A    
C13   N2    S    
C3    C5    S    
C10   C13   A    
C41   N3    A    
C27   H9    S    
C24   H31   S    
C23   C38   A    
Cu1   O12   S    
C33   C41   S    
C22   O3    D    
C14   C22   S    
C24   O4    D    
C28   H8    S    
C2    C37   S    
C9    C21   S    
C28   H7    S    
C3    O14   A    
C12   C38   S    
C25   H5    S    
C2    N4    A    
C26   H2    S    
C4    O13   A    
C21   O2    D    
C8    C10   A    
C27   C28   S    
C22   H30   S    
C20   H28   S    
C35   H19   S    
C32   H15   S    
C19   C30   S    
C1    O1    A    
C34   H27   S    
Cu2   O9    S    
C33   H24   S    
