data_str_m2_o1_o14_f0_pcu.sym.165
_audit_creation_date              2012-12-10T17:56:44-0500
_audit_creation_method            fapswitch 2.2
_symmetry_space_group_name_H-M    P1
_symmetry_Int_Tables_number       1
_space_group_crystal_system       triclinic
_cell_length_a                    10.83326
_cell_length_b                    9.516349
_cell_length_c                    10.784289
_cell_angle_alpha                 90.085229
_cell_angle_beta                  89.28258
_cell_angle_gamma                 88.789701
_cell_volume                      1111.44872314

loop_
_atom_site_label
_atom_site_type_symbol
_atom_type_description
_atom_site_fract_x
_atom_site_fract_y
_atom_site_fract_z
_atom_type_partial_charge
C1    C     C_R   0.261519 0.502557 0.501032 0.772590
C2    C     C_R   0.737509 0.498704 0.492567 0.797201
C3    C     C_R   0.933626 0.608182 0.423167 0.085083
C4    C     C_R   0.058012 0.627871 0.454227 0.064936
C5    C     C_R   0.439313 0.075711 0.410552 -0.034520
C6    C     C_R   0.561706 0.073067 0.588757 -0.020778
C7    C     C_R   0.439687 0.926944 0.410315 -0.031399
C8    C     C_R   0.561546 0.924273 0.588863 -0.020492
C9    C     C_R   0.495574 0.499890 0.262621 0.783376
C10   C     C_R   0.496172 0.500034 0.737651 0.792621
C11   C     C_R   0.296107 0.646873 0.132345 -0.198761
C12   C     C_R   0.294917 0.643389 0.873860 -0.179007
C13   C     C_R   0.202040 0.716808 0.068604 -0.143494
C14   C     C_R   0.201300 0.714840 0.939607 -0.136205
C15   C     C_R   0.392549 0.574519 0.936275 0.099181
C16   C     C_R   0.392755 0.575338 0.067310 0.099652
C17   C     C_R   0.486730 0.498914 0.129203 -0.091348
C18   C     C_R   0.487237 0.499227 0.871581 -0.099351
C19   C     C_R   0.573235 0.416703 0.063175 -0.210752
C20   C     C_R   0.574103 0.417729 0.935238 -0.219265
C21   C     C_R   0.064589 0.388661 0.537713 -0.222433
C22   C     C_R   0.937384 0.386212 0.535934 -0.233739
C23   C     C_R   0.871143 0.496676 0.481346 -0.061358
C24   C     C_R   0.126543 0.508781 0.499005 -0.069407
Cu1   Cu    Cu3+1 0.500000 0.640660 0.500000 0.924415
Cu2   Cu    Cu3+1 0.500000 0.359340 0.500000 0.935802
H1    H     H_    0.643184 0.355165 0.110993 0.147771
H2    H     H_    0.644714 0.357115 0.885527 0.143859
H3    H     H_    0.290315 0.646522 0.232384 0.134712
H4    H     H_    0.288341 0.638621 0.774392 0.127833
H5    H     H_    0.128323 0.770558 0.119544 0.126679
H6    H     H_    0.126902 0.766907 0.890344 0.128013
H7    H     H_    0.114366 0.299255 0.575986 0.169696
H8    H     H_    0.890830 0.297592 0.576922 0.155604
H9    H     H_    0.389961 0.132663 0.339287 0.130397
H10   H     H_    0.611533 0.127934 0.659663 0.117899
H11   H     H_    0.391497 0.872235 0.338267 0.117041
H12   H     H_    0.611203 0.867254 0.659880 0.125964
N1    N     N_R   0.500000 0.852070 0.500000 -0.158162
N2    N     N_R   0.500000 0.147940 0.500000 -0.157387
O1    O     O_R   0.319640 0.618740 0.499990 -0.599284
O2    O     O_R   0.680360 0.618740 0.500010 -0.581306
O3    O     O_R   0.319620 0.381170 0.499990 -0.577777
O4    O     O_R   0.680380 0.381170 0.500010 -0.587325
O5    O     O_R   0.500000 0.618810 0.319650 -0.588058
O6    O     O_R   0.500000 0.618810 0.680350 -0.587079
O7    O     O_R   0.499970 0.381240 0.319640 -0.583484
O8    O     O_R   0.500030 0.381240 0.680360 -0.579387
C25   C     C_3   0.872608 0.695704 0.320831 -0.425707
C26   C     C_3   0.829517 0.603287 0.213516 -0.338240
C27   C     C_3   0.776488 0.692926 0.108655 -0.835180
H13   H     H_    0.691862 0.750583 0.141124 0.265451
H14   H     H_    0.845444 0.769423 0.075336 0.240281
H15   H     H_    0.752510 0.624625 0.029497 0.249729
H16   H     H_    0.909261 0.539970 0.176546 0.218313
H17   H     H_    0.757974 0.529931 0.245880 0.208125
H18   H     H_    0.795267 0.761629 0.358536 0.229200
H19   H     H_    0.938633 0.768093 0.276971 0.181872
C28   C     C_3   0.106687 0.777840 0.457379 -0.403208
C29   C     C_3   0.122001 0.829275 0.591582 -0.316904
C30   C     C_3   0.135997 0.988400 0.598295 -0.867564
H20   H     H_    0.215359 0.021575 0.540288 0.266120
H21   H     H_    0.050588 0.042599 0.565734 0.244281
H22   H     H_    0.152187 0.020344 0.695728 0.241633
H23   H     H_    0.039922 0.800612 0.648384 0.208205
H24   H     H_    0.204372 0.779703 0.633352 0.238081
H25   H     H_    0.192600 0.787330 0.401844 0.197586
H26   H     H_    0.041352 0.854233 0.415756 0.189162

loop_
_geom_bond_atom_site_label_1
_geom_bond_atom_site_label_2
_ccdc_geom_bond_type
Cu1   O2    S    
C10   O6    A    
C15   C18   A    
C9    O5    A    
C27   H13   S    
C8    N1    A    
C28   H26   S    
C30   H22   S    
C19   H1    S    
C11   C16   A    
C3    C23   A    
C26   H16   S    
C12   C15   A    
Cu2   O8    S    
C27   H15   S    
C28   H25   S    
C26   C27   S    
C7    H11   S    
C29   H24   S    
C28   C29   S    
Cu1   O1    S    
C13   C14   A    
Cu1   N1    S    
C11   C13   A    
Cu2   N2    S    
C1    O3    A    
C8    H12   S    
Cu2   O7    S    
C2    O2    A    
C4    C24   A    
C5    H9    S    
C4    C28   S    
C9    C17   S    
C17   C19   A    
C6    H10   S    
Cu2   O3    S    
C9    O7    A    
C18   C20   A    
C10   C18   S    
C10   O8    A    
C30   H20   S    
C22   H8    S    
C6    N2    A    
C21   C24   A    
C21   H7    S    
C25   H19   S    
Cu2   O4    S    
C15   C16   A    
C3    C25   S    
Cu1   O5    S    
C12   C14   A    
C29   H23   S    
C25   H18   S    
C11   H3    S    
C1    C24   S    
C30   H21   S    
C25   C26   S    
C5    N2    A    
C1    O1    A    
C2    C23   S    
C5    C7    A    
C7    N1    A    
C22   C23   A    
C16   C17   A    
C6    C8    A    
C20   H2    S    
C12   H4    S    
Cu1   Cu2   S    
C21   C22   A    
C14   H6    S    
Cu1   O6    S    
C13   H5    S    
C26   H17   S    
C3    C4    A    
C19   C20   A    
C2    O4    A    
C29   C30   S    
C27   H14   S    
