data_str_m2_o1_o5_f0_pcu.sym.33
_audit_creation_date              2012-10-26T18:34:22-0400
_audit_creation_method            fapswitch 2.2
_symmetry_space_group_name_H-M    P1
_symmetry_Int_Tables_number       1
_space_group_crystal_system       triclinic
_cell_length_a                    10.787944
_cell_length_b                    9.528604
_cell_length_c                    9.072205
_cell_angle_alpha                 89.851388
_cell_angle_beta                  90.297755
_cell_angle_gamma                 89.164738
_cell_volume                      932.45365341

loop_
_atom_site_label
_atom_site_type_symbol
_atom_type_description
_atom_site_fract_x
_atom_site_fract_y
_atom_site_fract_z
_atom_type_partial_charge
C1    C     C_R   0.262381 0.501344 0.500648 0.607415
C2    C     C_R   0.063482 0.576907 0.609556 0.087392
C3    C     C_R   0.871684 0.494883 0.502341 0.017484
C4    C     C_R   0.128315 0.505116 0.497652 0.017478
C5    C     C_R   0.419698 0.075892 0.412127 0.011955
C6    C     C_R   0.580302 0.924108 0.587873 0.011957
C7    C     C_R   0.580324 0.072865 0.587829 0.000592
C8    C     C_R   0.419676 0.927135 0.412171 0.000600
C9    C     C_3   0.166902 0.470039 0.151932 -0.307356
C10   C     C_3   0.833112 0.529948 0.848093 -0.307309
C11   C     C_3   0.852703 0.202042 0.306902 -0.278145
C12   C     C_R   0.737618 0.498655 0.499348 0.607419
C13   C     C_3   0.147283 0.798022 0.693038 -0.278031
C14   C     C_R   0.500385 0.500099 0.220616 0.558496
C15   C     C_R   0.499615 0.499901 0.779384 0.558495
C16   C     C_1   0.500193 0.500149 0.065542 -0.071997
C17   C     C_1   0.499808 0.499850 0.934458 -0.071994
C18   C     C_R   0.066115 0.432058 0.385589 0.094579
C19   C     C_R   0.933884 0.567945 0.614407 0.094579
C20   C     C_R   0.936516 0.423100 0.390435 0.087393
Cu1   Cu    Cu3+1 0.500000 0.640660 0.500000 0.947149
Cu2   Cu    Cu3+1 0.500000 0.359340 0.500000 0.947132
H1    H     H_    0.355358 0.133083 0.341622 0.124024
H2    H     H_    0.918328 0.487161 0.901957 0.118264
H3    H     H_    0.778837 0.441899 0.802234 0.155936
H4    H     H_    0.775769 0.584161 0.932481 0.144221
H5    H     H_    0.898950 0.370247 0.172765 0.243000
H6    H     H_    0.941061 0.142651 0.293137 0.108549
H7    H     H_    0.783540 0.160514 0.227820 0.147686
H8    H     H_    0.818535 0.183809 0.420426 0.172254
H9    H     H_    0.101059 0.629816 0.827246 0.242963
H10   H     H_    0.058929 0.857391 0.706884 0.108540
H11   H     H_    0.181380 0.816254 0.579454 0.172152
H12   H     H_    0.644642 0.866917 0.658377 0.124023
H13   H     H_    0.216503 0.839590 0.772060 0.147676
H14   H     H_    0.644715 0.127661 0.658185 0.100802
H15   H     H_    0.355284 0.872339 0.341816 0.100799
H16   H     H_    0.101171 0.279188 0.225785 0.248842
H17   H     H_    0.081694 0.512784 0.098044 0.118284
H18   H     H_    0.224276 0.415840 0.067581 0.144238
H19   H     H_    0.221147 0.558100 0.197782 0.155937
H20   H     H_    0.898828 0.720828 0.774230 0.248814
N1    N     N_R   0.500000 0.852070 0.500000 -0.226526
N2    N     N_R   0.500000 0.147930 0.500000 -0.226531
N3    N     N_2   0.134948 0.371663 0.266976 -0.511878
N4    N     N_2   0.865053 0.628341 0.733037 -0.511831
N5    N     N_2   0.869802 0.350311 0.278714 -0.509401
N6    N     N_2   0.130197 0.649734 0.721272 -0.509315
O1    O     O_R   0.319640 0.618740 0.499990 -0.505773
O2    O     O_R   0.680360 0.381260 0.500010 -0.505800
O3    O     O_R   0.680360 0.618740 0.500010 -0.485048
O4    O     O_R   0.319640 0.381260 0.499990 -0.485046
O5    O     O_R   0.500000 0.618760 0.288390 -0.506026
O6    O     O_R   0.500000 0.381240 0.711610 -0.506027
O7    O     O_R   0.500000 0.618760 0.711610 -0.486541
O8    O     O_R   0.500000 0.381240 0.288390 -0.486545

loop_
_geom_bond_atom_site_label_1
_geom_bond_atom_site_label_2
_ccdc_geom_bond_type
C10   N4    S    
C13   N6    S    
C2    C4    A    
C18   N3    S    
C13   H11   S    
C6    C7    A    
C5    C8    A    
C7    H14   S    
C13   H10   S    
C9    H19   S    
C5    H1    S    
C8    N1    A    
Cu2   O2    S    
H9    N6    S    
C1    C4    S    
C4    C18   A    
C10   H4    S    
Cu1   O1    S    
C11   N5    S    
C19   N4    S    
C3    C20   A    
Cu2   O6    S    
Cu1   N1    S    
C7    N2    A    
C14   O8    A    
C3    C19   A    
C2    N6    S    
C14   O5    A    
C11   H6    S    
C9    N3    S    
Cu1   O5    S    
C10   H3    S    
C5    N2    A    
C13   H13   S    
C18   C20   A    
C6    N1    A    
C9    H18   S    
C1    O4    A    
C14   C16   S    
C20   N5    S    
C8    H15   S    
C15   C17   S    
C15   O6    A    
Cu1   O3    S    
C12   O3    A    
C11   H7    S    
Cu2   O4    S    
H20   N4    S    
H5    N5    S    
Cu1   O7    S    
C16   C17   T    
H16   N3    S    
Cu2   O8    S    
C3    C12   S    
C10   H2    S    
C2    C19   A    
Cu1   Cu2   S    
C1    O1    A    
C9    H17   S    
Cu2   N2    S    
C6    H12   S    
C11   H8    S    
C12   O2    A    
C15   O7    A    
