data_str_m2_o4_o9_f0_pcu.sym.46
_audit_creation_date              2012-10-26T19:00:11-0400
_audit_creation_method            fapswitch 2.2
_symmetry_space_group_name_H-M    P1
_symmetry_Int_Tables_number       1
_space_group_crystal_system       triclinic
_cell_length_a                    10.928042
_cell_length_b                    10.932907
_cell_length_c                    9.634733
_cell_angle_alpha                 86.229311
_cell_angle_beta                  91.350657
_cell_angle_gamma                 91.87255
_cell_volume                      1147.74215998

loop_
_atom_site_label
_atom_site_type_symbol
_atom_type_description
_atom_site_fract_x
_atom_site_fract_y
_atom_site_fract_z
_atom_type_partial_charge
C1    C     C_R   0.501980 0.261560 0.504337 0.534637
C2    C     C_R   0.807729 0.378220 0.976265 -0.089145
C3    C     C_R   0.761079 0.258860 0.965583 -0.187896
C4    C     C_R   0.262105 0.498455 0.498459 0.541887
C5    C     C_R   0.777713 0.198621 0.844258 -0.119756
C6    C     C_R   0.836746 0.258644 0.730157 -0.015742
C7    C     C_R   0.880514 0.381271 0.739605 0.078972
C8    C     C_R   0.504503 0.047130 0.632566 0.016573
C9    C     C_R   0.513792 0.126899 0.510083 -0.010818
C10   C     C_R   0.540502 0.073127 0.383982 -0.163003
C11   C     C_R   0.538542 0.945460 0.375759 -0.161576
C12   C     C_R   0.181094 0.499969 0.968814 0.008596
C13   C     C_R   0.504914 0.869876 0.491962 0.005801
C14   C     C_R   0.486676 0.923670 0.614938 -0.001729
C15   C     C_3   0.385367 0.901170 0.712505 -0.197693
C16   C     C_R   0.499875 0.737086 0.496025 0.551462
C17   C     C_3   0.415541 0.030247 0.753193 -0.137975
C18   C     C_R   0.531888 0.603832 0.066061 0.172265
C19   C     C_R   0.451080 0.404981 0.081860 0.009920
C20   C     C_R   0.449569 0.405286 0.934293 0.074556
C21   C     C_R   0.530801 0.604057 0.919646 0.175266
C22   C     C_3   0.646500 0.678758 0.909361 -0.263256
C23   C     C_R   0.931905 0.544829 0.385660 -0.150895
C24   C     C_3   0.649576 0.676833 0.067655 -0.270774
C25   C     C_R   0.737345 0.499601 0.501848 0.548249
C26   C     C_R   0.191439 0.614969 0.024661 0.417581
C27   C     C_R   0.152143 0.629389 0.159212 -0.023730
C28   C     C_R   0.104231 0.527700 0.237727 -0.010187
C29   C     C_R   0.093703 0.412997 0.181744 -0.091112
C30   C     C_R   0.130748 0.398095 0.047065 -0.030002
C31   C     C_3   0.854131 0.187668 0.603460 -0.406188
C32   C     C_3   0.478292 0.020837 0.900119 -0.407956
C33   C     C_3   0.395501 0.296684 0.872370 -0.375150
C34   C     C_R   0.871128 0.500795 0.505409 -0.003036
C35   C     C_3   0.113522 0.273392 0.991443 -0.412934
C36   C     C_R   0.939105 0.450304 0.620496 0.029305
C37   C     C_R   0.066230 0.452331 0.615352 -0.107907
C38   C     C_R   0.127385 0.497918 0.496315 -0.004309
C39   C     C_R   0.058014 0.536734 0.377333 -0.034411
C40   C     C_R   0.869442 0.438440 0.864823 0.378109
Cu1   Cu    Cu3+1 0.499990 0.499980 0.640670 0.953510
Cu2   Cu    Cu3+1 0.500010 0.500020 0.359330 0.938749
F1    F     F_    0.239204 0.712537 0.947951 -0.665828
F2    F     F_    0.920231 0.551978 0.879244 -0.663785
H1    H     H_    0.214468 0.491485 0.866130 0.146184
H2    H     H_    0.720314 0.628813 0.864530 0.219756
H3    H     H_    0.632507 0.771006 0.857738 0.124487
H4    H     H_    0.726368 0.624421 0.116371 0.153954
H5    H     H_    0.638487 0.768906 0.107169 0.118000
H6    H     H_    0.159336 0.718487 0.202165 0.122918
H7    H     H_    0.054648 0.335166 0.243116 0.113042
H8    H     H_    0.880222 0.575376 0.293133 0.135456
H9    H     H_    0.117073 0.407818 0.699683 0.103361
H10   H     H_    0.798564 0.422830 0.072250 0.129470
H11   H     H_    0.905219 0.240578 0.520279 0.122828
H12   H     H_    0.714971 0.211798 0.052850 0.111400
H13   H     H_    0.905932 0.103987 0.633594 0.137289
H14   H     H_    0.763657 0.159747 0.559677 0.145551
H15   H     H_    0.528317 0.934871 0.921155 0.133063
H16   H     H_    0.548831 0.092795 0.915914 0.117420
H17   H     H_    0.407833 0.023113 0.980919 0.150091
H18   H     H_    0.328816 0.321375 0.788074 0.159517
H19   H     H_    0.473287 0.251175 0.834642 0.185955
H20   H     H_    0.351328 0.231932 0.950044 0.073287
H21   H     H_    0.139151 0.272389 0.881417 0.111546
H22   H     H_    0.168412 0.206318 0.055578 0.128275
H23   H     H_    0.746104 0.104129 0.839267 0.128226
H24   H     H_    0.016492 0.242121 0.998977 0.154884
H25   H     H_    0.559276 0.129388 0.289668 0.131192
H26   H     H_    0.558210 0.907015 0.278326 0.123796
H27   H     H_    0.295315 0.893116 0.657032 0.145410
H28   H     H_    0.402818 0.824876 0.791620 0.214207
H29   H     H_    0.335702 0.090740 0.741851 0.136862
H30   H     H_    0.412830 0.327211 0.143131 0.130275
N1    N     N_R   0.500790 0.500930 0.147930 -0.250271
N2    N     N_R   0.500790 0.500890 0.852020 -0.224490
O1    O     O_R   0.500000 0.319640 0.618810 -0.519319
O2    O     O_R   0.500010 0.319680 0.381230 -0.520780
O3    O     O_R   0.319640 0.499990 0.618790 -0.513180
O4    O     O_R   0.319650 0.500030 0.381210 -0.495762
O5    O     O_R   0.499990 0.680320 0.618770 -0.502555
O6    O     O_R   0.500000 0.680360 0.381190 -0.502697
O7    O     O_R   0.680350 0.499970 0.618790 -0.489340
O8    O     O_R   0.680360 0.500010 0.381210 -0.517954

loop_
_geom_bond_atom_site_label_1
_geom_bond_atom_site_label_2
_ccdc_geom_bond_type
Cu2   O4    S    
C18   N1    A    
C18   C21   A    
C1    O1    A    
Cu1   Cu2   S    
C19   C20   A    
Cu2   O6    S    
C5    H23   S    
C11   H26   S    
C15   H28   S    
C21   N2    A    
C26   C27   A    
C29   C30   A    
C30   C35   S    
C18   C24   S    
C31   H14   S    
C28   C29   A    
C32   H17   S    
C4    O4    A    
Cu1   O1    S    
C5    C6    A    
C35   H21   S    
Cu1   O7    S    
C20   N2    A    
C7    C36   S    
C8    C9    A    
C25   O8    A    
C7    C40   A    
C9    C10   A    
C27   H6    S    
C25   C34   S    
C37   H9    S    
C22   H3    S    
C13   C14   A    
C17   H29   S    
C1    O2    A    
C26   F1    S    
C24   H4    S    
Cu2   O8    S    
C4    O3    A    
C2    H10   S    
C33   H18   S    
C28   C39   S    
C12   C26   A    
C37   C38   A    
C3    H12   S    
C33   H19   S    
C23   C34   A    
Cu1   O5    S    
C16   O6    A    
Cu2   N1    S    
C1    C9    S    
C20   C33   S    
C22   H2    S    
C4    C38   S    
Cu2   O2    S    
C22   C24   S    
C32   H16   S    
C29   H7    S    
C24   H5    S    
C15   C17   S    
C36   C37   A    
C8    C14   A    
C12   C30   A    
C19   H30   S    
C12   H1    S    
C3    C5    A    
Cu1   O3    S    
C6    C7    A    
C15   H27   S    
C8    C17   S    
C35   H22   S    
C31   H13   S    
C19   N1    A    
C2    C3    A    
Cu1   N2    S    
C11   C13   A    
C23   H8    S    
C38   C39   A    
C35   H24   S    
C33   H20   S    
C23   C39   A    
C16   O5    A    
C6    C31   S    
C34   C36   A    
C10   C11   A    
C10   H25   S    
C2    C40   A    
C40   F2    S    
C13   C16   S    
C27   C28   A    
C25   O7    A    
C17   C32   S    
C14   C15   S    
C32   H15   S    
C31   H11   S    
C21   C22   S    
