data_str_m2_o4_o14_f0_pcu.sym.41
_audit_creation_date              2012-10-26T19:35:14-0400
_audit_creation_method            fapswitch 2.2
_symmetry_space_group_name_H-M    P1
_symmetry_Int_Tables_number       1
_space_group_crystal_system       triclinic
_cell_length_a                    10.863155
_cell_length_b                    10.813848
_cell_length_c                    9.534603
_cell_angle_alpha                 90.340542
_cell_angle_beta                  89.362563
_cell_angle_gamma                 89.798871
_cell_volume                      1119.95745504

loop_
_atom_site_label
_atom_site_type_symbol
_atom_type_description
_atom_site_fract_x
_atom_site_fract_y
_atom_site_fract_z
_atom_type_partial_charge
C1    C     C_R   0.503775 0.262525 0.499718 0.578170
C2    C     C_R   0.578159 0.933078 0.400554 -0.156047
C3    C     C_R   0.507127 0.870881 0.501568 -0.000376
C4    C     C_R   0.262302 0.502005 0.501591 0.544762
C5    C     C_R   0.449337 0.938306 0.608602 0.019255
C6    C     C_3   0.316340 0.938866 0.652816 0.157751
C7    C     C_3   0.324959 0.079495 0.659355 -0.235184
C8    C     C_R   0.573357 0.580192 0.073183 0.152612
C9    C     C_R   0.435702 0.414269 0.074724 -0.012792
C10   C     C_R   0.435713 0.414235 0.925806 -0.017463
C11   C     C_R   0.572796 0.580628 0.925634 0.158413
C12   C     C_R   0.063231 0.579091 0.605951 0.001917
C13   C     C_3   0.565206 0.718335 0.921481 -0.280468
C14   C     C_3   0.568061 0.717917 0.079982 -0.287282
C15   C     C_R   0.500286 0.737649 0.500316 0.565844
C16   C     C_R   0.737396 0.506724 0.498881 0.569105
C17   C     C_R   0.123178 0.649532 0.711717 -0.074062
C18   C     C_R   0.056562 0.716182 0.812405 -0.144312
C19   C     C_R   0.929907 0.725449 0.802834 -0.142753
C20   C     C_R   0.869250 0.664658 0.695177 -0.107905
C21   C     C_R   0.933433 0.585326 0.600294 -0.034171
C22   C     C_3   0.126667 0.330550 0.317515 -0.241737
C23   C     C_R   0.128028 0.503683 0.505839 -0.041308
C24   C     C_3   0.057486 0.207342 0.320527 -0.407818
C25   C     C_3   0.883418 0.478877 0.162993 -0.091458
C26   C     C_3   0.599432 0.104812 0.163368 -0.095061
C27   C     C_3   0.116540 0.924548 0.569722 -0.120947
C28   C     C_R   0.063602 0.432572 0.405243 -0.007008
C29   C     C_R   0.937314 0.453175 0.390207 0.261521
C30   C     C_R   0.871291 0.517424 0.495750 -0.022277
C31   C     C_R   0.454891 0.065700 0.610173 -0.072126
C32   C     C_R   0.512604 0.129278 0.501204 0.023345
C33   C     C_R   0.578571 0.063023 0.396877 0.249558
Cu1   Cu    Cu3+1 0.499990 0.499980 0.640670 0.924606
Cu2   Cu    Cu3+1 0.500010 0.500020 0.359330 0.973786
H1    H     H_    0.300943 0.892774 0.755611 0.087756
H2    H     H_    0.221297 0.659067 0.718633 0.167110
H3    H     H_    0.104309 0.767086 0.893291 0.099202
H4    H     H_    0.879010 0.783416 0.876194 0.100340
H5    H     H_    0.772341 0.684045 0.685405 0.135904
H6    H     H_    0.631754 0.881160 0.324206 0.112438
H7    H     H_    0.014753 0.192293 0.425302 0.158606
H8    H     H_    0.985175 0.204543 0.239407 0.209740
H9    H     H_    0.122374 0.130134 0.296909 0.116666
H10   H     H_    0.138415 0.361284 0.207352 0.139178
H11   H     H_    0.219288 0.308244 0.357847 0.148113
H12   H     H_    0.267408 0.129682 0.582373 0.136263
H13   H     H_    0.979979 0.489723 0.125459 0.101343
H14   H     H_    0.830018 0.438014 0.075823 0.144289
H15   H     H_    0.842867 0.571375 0.187264 0.115238
H16   H     H_    0.642922 0.170638 0.089197 0.149575
H17   H     H_    0.498209 0.121795 0.161138 0.103450
H18   H     H_    0.621232 0.009850 0.125258 0.095602
H19   H     H_    0.092414 0.933240 0.683113 0.107755
H20   H     H_    0.057747 0.851815 0.523097 0.155121
H21   H     H_    0.093789 0.012423 0.517534 0.115104
H22   H     H_    0.319217 0.116641 0.768178 0.084591
H23   H     H_    0.381509 0.346577 0.130857 0.099237
H24   H     H_    0.381420 0.346570 0.870201 0.112296
H25   H     H_    0.648109 0.761178 0.873650 0.110818
H26   H     H_    0.476121 0.752405 0.879982 0.142456
H27   H     H_    0.654386 0.757442 0.122241 0.104403
H28   H     H_    0.481488 0.754103 0.128322 0.159737
N1    N     N_R   0.500790 0.500930 0.147930 -0.225737
N2    N     N_R   0.500790 0.500890 0.852020 -0.233705
O1    O     O_R   0.500000 0.319640 0.618810 -0.511870
O2    O     O_3   0.648332 0.125751 0.297934 -0.533520
O3    O     O_3   0.241249 0.894148 0.543330 -0.558757
O4    O     O_R   0.500010 0.319680 0.381230 -0.474369
O5    O     O_R   0.319640 0.499980 0.618820 -0.520973
O6    O     O_R   0.319650 0.500020 0.381230 -0.509143
O7    O     O_R   0.499990 0.680320 0.618770 -0.522412
O8    O     O_R   0.500000 0.680360 0.381190 -0.510921
O9    O     O_R   0.680350 0.499980 0.618770 -0.513344
O10   O     O_R   0.680360 0.500020 0.381180 -0.450854
O11   O     O_3   0.875726 0.399035 0.279442 -0.534816

loop_
_geom_bond_atom_site_label_1
_geom_bond_atom_site_label_2
_ccdc_geom_bond_type
C16   O10   A    
C24   H7    S    
C19   C20   A    
Cu1   O1    S    
C4    O5    A    
C27   H19   S    
C29   O11   S    
C15   O7    A    
C12   C23   A    
Cu2   O10   S    
C16   O9    A    
C26   O2    S    
C28   C29   A    
Cu1   Cu2   S    
C5    C6    S    
C20   H5    S    
C27   H20   S    
C2    H6    S    
C16   C30   S    
C9    N1    A    
C9    H23   S    
C25   H15   S    
C27   O3    S    
C12   C17   A    
Cu2   N1    S    
C9    C10   A    
Cu1   O5    S    
C6    O3    S    
Cu2   O6    S    
C22   C28   S    
C13   C14   S    
Cu1   N2    S    
C1    O1    A    
C7    C31   S    
C13   H25   S    
C4    C23   S    
C27   H21   S    
C18   C19   A    
C12   C21   A    
C1    C32   S    
C1    O4    A    
C7    H12   S    
C29   C30   A    
C26   H17   S    
C31   C32   A    
C17   C18   A    
C17   H2    S    
C23   C28   A    
C25   H13   S    
C19   H4    S    
Cu1   O9    S    
C2    C33   A    
C22   H11   S    
C8    N1    A    
C24   H9    S    
C22   C24   S    
C26   H18   S    
Cu1   O7    S    
C3    C15   S    
C33   O2    S    
C10   N2    A    
Cu2   O8    S    
C8    C14   S    
C15   O8    A    
C3    C5    A    
C6    C7    S    
C21   C30   A    
C25   O11   S    
C32   C33   A    
C2    C3    A    
C18   H3    S    
C26   H16   S    
C11   C13   S    
C8    C11   A    
C14   H28   S    
C6    H1    S    
C10   H24   S    
C25   H14   S    
C22   H10   S    
C13   H26   S    
C20   C21   A    
Cu2   O4    S    
C24   H8    S    
C7    H22   S    
C4    O6    A    
C11   N2    A    
C5    C31   A    
C14   H27   S    
