data_str_m2_o1_o18_f0_pcu.sym.127
_audit_creation_date              2012-12-10T17:58:17-0500
_audit_creation_method            fapswitch 2.2
_symmetry_space_group_name_H-M    P1
_symmetry_Int_Tables_number       1
_space_group_crystal_system       triclinic
_cell_length_a                    9.505302
_cell_length_b                    10.824391
_cell_length_c                    15.48605
_cell_angle_alpha                 89.360061
_cell_angle_beta                  74.579984
_cell_angle_gamma                 89.825272
_cell_volume                      1535.89367373

loop_
_atom_site_label
_atom_site_type_symbol
_atom_type_description
_atom_site_fract_x
_atom_site_fract_y
_atom_site_fract_z
_atom_type_partial_charge
C1    C     C_R   0.000972 0.262279 0.497592 0.795219
C2    C     C_R   0.999137 0.737773 0.502213 0.794969
C3    C     C_R   0.585458 0.475570 0.094687 -0.226009
C4    C     C_R   0.423263 0.572604 0.910145 -0.225463
C5    C     C_R   0.731387 0.461529 0.049594 -0.245906
C6    C     C_R   0.277771 0.588734 0.955467 -0.243386
C7    C     C_R   0.901879 0.062386 0.460074 0.003861
C8    C     C_R   0.099089 0.937827 0.538914 0.003436
C9    C     C_R   0.900432 0.934368 0.466025 -0.247024
C10   C     C_R   0.100116 0.065802 0.533254 -0.247760
C11   C     C_R   0.998687 0.871716 0.504123 -0.080158
C12   C     C_R   0.001711 0.128409 0.495341 -0.080658
C13   C     C_R   0.548219 0.430187 0.560808 -0.006231
C14   C     C_R   0.451801 0.569740 0.439145 -0.005220
C15   C     C_R   0.399303 0.430320 0.560843 -0.031960
C16   C     C_R   0.600718 0.569612 0.439113 -0.031502
C17   C     C_R   0.918374 0.499848 0.672180 0.792990
C18   C     C_R   0.081615 0.500995 0.327888 0.792475
C19   C     C_R   0.873757 0.497356 0.770403 -0.051001
C20   C     C_R   0.126709 0.512156 0.230068 -0.050094
C21   C     C_R   0.925471 0.458483 0.912727 -0.215852
C22   C     C_R   0.080950 0.578841 0.090786 -0.218843
C23   C     C_R   0.973512 0.469843 0.819942 -0.209669
C24   C     C_R   0.030086 0.554474 0.182198 -0.211353
C25   C     C_R   0.727025 0.517751 0.814589 -0.257278
C26   C     C_R   0.272925 0.490760 0.185497 -0.254643
C27   C     C_R   0.676077 0.509747 0.908392 0.092720
C28   C     C_R   0.328477 0.519054 0.093985 0.093161
C29   C     C_R   0.777831 0.476928 0.957139 0.171092
C30   C     C_R   0.228881 0.561803 0.046468 0.169606
C31   C     C_R   0.526651 0.529458 0.954612 0.067723
C32   C     C_R   0.479537 0.506865 0.048735 0.069280
Cu1   Cu    Cu3+1 0.140660 0.500020 0.500000 0.942249
Cu2   Cu    Cu3+1 0.859340 0.499980 0.500000 0.941944
H1    H     H_    0.808336 0.436933 0.087525 0.142578
H2    H     H_    0.202740 0.622760 0.918830 0.141258
H3    H     H_    0.340930 0.452116 0.224425 0.141596
H4    H     H_    0.653902 0.536017 0.773652 0.144933
H5    H     H_    0.916530 0.571981 0.215733 0.147785
H6    H     H_    0.087514 0.453468 0.786905 0.149222
H7    H     H_    0.003445 0.433057 0.949679 0.144934
H8    H     H_    0.005163 0.613675 0.055013 0.143447
H9    H     H_    0.560580 0.463622 0.166222 0.132902
H10   H     H_    0.451212 0.598365 0.840391 0.132678
H11   H     H_    0.825511 0.883312 0.437794 0.147720
H12   H     H_    0.175293 0.116856 0.561290 0.148732
H13   H     H_    0.583449 0.373789 0.609249 0.121125
H14   H     H_    0.416583 0.626109 0.390683 0.121750
H15   H     H_    0.322161 0.374278 0.609376 0.111424
H16   H     H_    0.677864 0.625634 0.390566 0.110297
N1    N     N_R   0.352080 0.500030 0.499980 -0.152857
N2    N     N_R   0.647920 0.499970 0.500020 -0.152672
O1    O     O_R   0.118740 0.319660 0.500000 -0.592999
O2    O     O_R   0.881260 0.680340 0.500000 -0.592757
O3    O     O_R   0.881170 0.319630 0.500010 -0.565283
O4    O     O_R   0.118830 0.680370 0.499990 -0.565374
O5    O     O_R   0.055570 0.500030 0.629830 -0.583311
O6    O     O_R   0.944430 0.499970 0.370170 -0.583308
O7    O     O_R   0.818000 0.500000 0.629840 -0.592602
O8    O     O_R   0.182000 0.500000 0.370160 -0.591408
C33   C     C_R   0.801189 0.123850 0.414508 0.129933
C34   C     C_R   0.649676 0.117612 0.452161 -0.169323
C35   C     C_R   0.554819 0.180634 0.411734 -0.138404
C36   C     C_R   0.610551 0.250234 0.333585 -0.096832
C37   C     C_R   0.761214 0.256263 0.295372 -0.117208
C38   C     C_R   0.856417 0.192990 0.335390 -0.102428
H17   H     H_    0.605551 0.066345 0.513791 0.124517
H18   H     H_    0.438178 0.176669 0.441536 0.134770
H19   H     H_    0.537024 0.299827 0.302864 0.116601
H20   H     H_    0.804312 0.310560 0.235058 0.118455
H21   H     H_    0.973018 0.199353 0.305680 0.100770
C39   C     C_R   0.201993 0.876695 0.582943 0.129828
C40   C     C_R   0.149586 0.807098 0.662126 -0.099366
C41   C     C_R   0.247146 0.744403 0.700614 -0.119875
C42   C     C_R   0.397301 0.751563 0.660849 -0.096293
C43   C     C_R   0.450202 0.821759 0.582709 -0.138647
C44   C     C_R   0.353028 0.884143 0.543770 -0.170798
H22   H     H_    0.033401 0.799886 0.693032 0.102234
H23   H     H_    0.206260 0.689658 0.760913 0.116150
H24   H     H_    0.472703 0.702356 0.690272 0.116029
H25   H     H_    0.566438 0.826610 0.551740 0.134462
H26   H     H_    0.394993 0.935962 0.482134 0.124899

loop_
_geom_bond_atom_site_label_1
_geom_bond_atom_site_label_2
_ccdc_geom_bond_type
C9    H11   S    
C27   C29   A    
C40   C41   A    
C3    H9    S    
C34   C35   A    
C34   H17   S    
C16   H16   S    
C14   N1    A    
C23   H6    S    
C24   H5    S    
C1    O1    A    
C7    C33   S    
C33   C38   A    
C18   O6    A    
C20   C24   A    
C10   H12   S    
C40   H22   S    
C15   N1    A    
C42   H24   S    
C18   C20   S    
Cu1   O4    S    
Cu2   O3    S    
C3    C32   A    
C1    C12   S    
C2    C11   S    
C5    C29   A    
Cu1   O1    S    
C7    C12   A    
C8    C39   S    
C41   C42   A    
C27   C31   A    
C28   C32   A    
C43   C44   A    
C4    C6    A    
C2    O2    A    
C13   H13   S    
C14   H14   S    
C4    H10   S    
C21   C29   A    
C19   C23   A    
C42   C43   A    
C39   C44   A    
C25   H4    S    
C13   N2    A    
C38   H21   S    
Cu1   Cu2   S    
C36   H19   S    
C9    C11   A    
C10   C12   A    
C17   O7    A    
C21   H7    S    
C18   O8    A    
C6    C30   A    
Cu2   O2    S    
Cu1   O8    S    
C41   H23   S    
C13   C15   A    
Cu2   O7    S    
C14   C16   A    
C25   C27   A    
C7    C9    A    
C35   H18   S    
Cu1   O5    S    
C22   C30   A    
Cu2   N2    S    
C31   C32   A    
C16   N2    A    
C39   C40   A    
C3    C5    A    
C43   H25   S    
C26   H3    S    
Cu1   N1    S    
C26   C28   A    
C36   C37   A    
C21   C23   A    
C1    O3    A    
C2    O4    A    
C22   H8    S    
C20   C26   A    
C44   H26   S    
C8    C11   A    
C5    H1    S    
C28   C30   A    
C17   C19   S    
C6    H2    S    
C22   C24   A    
C15   H15   S    
C33   C34   A    
C19   C25   A    
C4    C31   A    
C35   C36   A    
C8    C10   A    
C37   C38   A    
Cu2   O6    S    
C37   H20   S    
C17   O5    A    
