data_str_m2_o1_o11_f0_pcu.sym.178
_audit_creation_date              2012-12-10T17:55:29-0500
_audit_creation_method            fapswitch 2.2
_symmetry_space_group_name_H-M    P1
_symmetry_Int_Tables_number       1
_space_group_crystal_system       triclinic
_cell_length_a                    10.854131
_cell_length_b                    9.603709
_cell_length_c                    10.930336
_cell_angle_alpha                 89.954003
_cell_angle_beta                  94.310522
_cell_angle_gamma                 89.552394
_cell_volume                      1136.11862555

loop_
_atom_site_label
_atom_site_type_symbol
_atom_type_description
_atom_site_fract_x
_atom_site_fract_y
_atom_site_fract_z
_atom_type_partial_charge
C1    C     C_R   0.263773 0.500530 0.512464 0.913255
C2    C     C_R   0.737465 0.499396 0.492472 0.947601
C3    C     C_R   0.493519 0.500193 0.265126 0.743610
C4    C     C_R   0.506462 0.499993 0.734868 0.721912
C5    C     C_2   0.490844 0.392888 0.933211 -0.081006
C6    C     C_2   0.508782 0.392733 0.066882 -0.070143
C7    C     C_2   0.529429 0.500196 0.868110 0.332887
C8    C     C_2   0.470678 0.500981 0.131849 0.321739
C9    C     C_R   0.067073 0.373121 0.531225 0.302171
C10   C     C_R   0.938490 0.370784 0.509367 0.393846
C11   C     C_R   0.872725 0.497577 0.488876 -0.333286
C12   C     C_R   0.130261 0.501047 0.527075 -0.366852
C13   C     C_R   0.937673 0.623842 0.479544 0.271091
C14   C     C_R   0.062645 0.627210 0.520246 0.296383
C15   C     C_R   0.428466 0.072351 0.410923 0.344923
C16   C     C_R   0.571514 0.070877 0.589072 0.348864
C17   C     C_R   0.433832 0.923227 0.410658 0.401922
C18   C     C_R   0.566522 0.921843 0.589091 0.398867
Cu1   Cu    Cu3+1 0.500000 0.640660 0.500000 1.115723
Cu2   Cu    Cu3+1 0.500000 0.359340 0.500000 1.109491
H1    H     H_    0.445510 0.303984 0.888735 0.163776
H2    H     H_    0.553723 0.302789 0.111465 0.171754
N1    N     N_R   0.500000 0.852070 0.500000 -0.241919
N2    N     N_R   0.500000 0.147940 0.500000 -0.318150
O1    O     O_R   0.319640 0.618740 0.499990 -0.498235
O2    O     O_R   0.680360 0.618740 0.500010 -0.507918
O3    O     O_R   0.319620 0.381170 0.499990 -0.519970
O4    O     O_R   0.680380 0.381170 0.500010 -0.483045
O5    O     O_R   0.500000 0.618750 0.321940 -0.548918
O6    O     O_R   0.500000 0.618750 0.678060 -0.548940
O7    O     O_R   0.499970 0.381180 0.321940 -0.551706
O8    O     O_R   0.500030 0.381180 0.678060 -0.563385
O9    O     O_3   0.596376 0.605995 0.927195 -0.659955
H3    H     H_    0.632455 0.664737 0.864915 0.353096
O10   O     O_3   0.404295 0.608373 0.072596 -0.661235
H4    H     H_    0.368542 0.668066 0.134768 0.354620
O11   O     O_3   0.127854 0.249924 0.562545 -0.639531
H5    H     H_    0.188705 0.269814 0.632520 0.339812
O12   O     O_3   0.875155 0.245930 0.506812 -0.613244
H6    H     H_    0.932998 0.165655 0.512668 0.421256
S1    S     S_3+6 0.873113 0.768394 0.393461 0.099793
O13   O     O_2   0.815066 0.869071 0.477557 -0.220453
O14   O     O_2   0.972231 0.841831 0.330089 -0.177032
O15   O     O_3   0.765644 0.713084 0.285784 -0.529143
H7    H     H_    0.720551 0.798326 0.256590 0.380777
S2    S     S_3+6 0.123125 0.782148 0.590853 0.104415
O16   O     O_2   0.176792 0.872765 0.496696 -0.196811
O17   O     O_2   0.022152 0.861370 0.647805 -0.179103
O18   O     O_3   0.233455 0.741910 0.702010 -0.525876
H8    H     H_    0.277706 0.830220 0.720220 0.373416
S3    S     S_3+6 0.326215 0.144026 0.287494 0.080410
O19   O     O_2   0.390196 0.125252 0.171330 -0.347106
O20   O     O_2   0.211327 0.056945 0.277383 -0.169323
O21   O     O_3   0.276328 0.309307 0.289913 -0.501914
H9    H     H_    0.228132 0.323795 0.210246 0.365338
S4    S     S_3+6 0.672897 0.140491 0.713067 0.078729
O22   O     O_2   0.608394 0.122123 0.828859 -0.345911
O23   O     O_2   0.788068 0.051803 0.723517 -0.178875
O24   O     O_3   0.722097 0.305142 0.710865 -0.498418
H10   H     H_    0.771901 0.318031 0.789712 0.365002
O25   O     O_3   0.368482 0.845973 0.322628 -0.619689
H11   H     H_    0.390736 0.880451 0.241944 0.351323
O26   O     O_3   0.632797 0.843228 0.676433 -0.621770
H12   H     H_    0.610471 0.877037 0.757393 0.351063

loop_
_geom_bond_atom_site_label_1
_geom_bond_atom_site_label_2
_ccdc_geom_bond_type
C2    O2    A    
Cu1   N1    S    
C16   S4    S    
O11   H5    S    
S3    O19   D    
Cu2   O3    S    
C15   S3    S    
S1    O14   D    
S1    O13   D    
O10   H4    S    
S4    O24   S    
S3    O21   S    
C1    O3    A    
O25   H11   S    
C13   S1    S    
O9    H3    S    
O24   H10   S    
C16   N2    A    
C16   C18   A    
C17   N1    A    
C13   C14   A    
S4    O22   D    
C3    O7    A    
C7    O9    S    
S2    O18   S    
C3    O5    A    
C4    O8    A    
C1    C12   S    
C4    C7    S    
C2    C11   S    
C9    C10   A    
C9    O11   S    
C15   N2    A    
C9    C12   A    
C12   C14   A    
C3    C8    S    
C5    C7    D    
C18   N1    A    
C5    C6    S    
Cu1   O1    S    
S1    O15   S    
S2    O17   D    
C18   O26   S    
C2    O4    A    
C10   C11   A    
O26   H12   S    
Cu1   O5    S    
Cu2   O7    S    
Cu2   N2    S    
C11   C13   A    
C5    H1    S    
O15   H7    S    
C14   S2    S    
O18   H8    S    
Cu2   O8    S    
O12   H6    S    
C15   C17   A    
Cu1   O2    S    
O21   H9    S    
C6    C8    D    
Cu2   O4    S    
C17   O25   S    
S2    O16   D    
Cu1   O6    S    
C1    O1    A    
C4    O6    A    
Cu1   Cu2   S    
S4    O23   D    
C10   O12   S    
S3    O20   D    
C8    O10   S    
C6    H2    S    
