data_str_m2_o4_o22_f0_pcu.sym.15
_audit_creation_date              2012-10-26T18:43:28-0400
_audit_creation_method            fapswitch 2.2
_symmetry_space_group_name_H-M    P1
_symmetry_Int_Tables_number       1
_space_group_crystal_system       triclinic
_cell_length_a                    10.76026
_cell_length_b                    10.810649
_cell_length_c                    9.556621
_cell_angle_alpha                 90.403777
_cell_angle_beta                  90.184954
_cell_angle_gamma                 91.274833
_cell_volume                      1111.36857071

loop_
_atom_site_label
_atom_site_type_symbol
_atom_type_description
_atom_site_fract_x
_atom_site_fract_y
_atom_site_fract_z
_atom_type_partial_charge
C1    C     C_R   0.497027 0.262346 0.499483 0.535433
C2    C     C_R   0.475515 0.937399 0.624890 0.022551
C3    C     C_3   0.556636 0.934922 0.751889 -0.277018
C4    C     C_R   0.259977 0.492617 0.499804 0.563831
C5    C     C_3   0.556746 0.075124 0.750780 -0.264755
C6    C     C_R   0.606870 0.524975 0.074219 0.156079
C7    C     C_R   0.397045 0.465500 0.073378 -0.034324
C8    C     C_R   0.397205 0.464482 0.925014 -0.021117
C9    C     C_R   0.606737 0.525528 0.926772 0.159966
C10   C     C_3   0.680951 0.643319 0.923174 -0.292805
C11   C     C_3   0.682759 0.641642 0.081410 -0.269323
C12   C     C_3   0.878413 0.499277 0.501391 0.037430
C13   C     C_R   0.496581 0.737642 0.500248 0.542901
C14   C     C_R   0.740241 0.501244 0.500526 0.576741
C15   C     C_3   0.071045 0.468679 0.649883 -0.304803
C16   C     C_3   0.928346 0.460521 0.647383 -0.303225
C17   C     C_3   0.077953 0.618309 0.449194 -0.186645
C18   C     C_3   0.065152 0.385743 0.403431 0.153794
C19   C     C_3   0.121836 0.490649 0.499527 0.039774
C20   C     C_3   0.906040 0.807319 0.332647 -0.016961
C21   C     C_3   0.797019 0.880371 0.389813 -0.250578
C22   C     C_3   0.822154 0.019600 0.379748 -0.490920
C23   C     C_3   0.935530 0.629591 0.467107 0.148485
C24   C     C_3   0.097724 0.274112 0.195902 -0.018809
C25   C     C_3   0.203789 0.184782 0.222308 -0.260425
C26   C     C_3   0.181508 0.062538 0.144375 -0.491579
C27   C     C_3   0.922720 0.402623 0.392783 -0.185465
C28   C     C_R   0.475798 0.064695 0.624018 0.019040
C29   C     C_R   0.482881 0.129120 0.498403 -0.002081
C30   C     C_R   0.471581 0.062891 0.371815 -0.178216
C31   C     C_R   0.469691 0.933989 0.372582 -0.177710
C32   C     C_R   0.481833 0.870488 0.499781 0.000509
Cu1   Cu    Cu3+1 0.499990 0.499980 0.640670 0.918505
Cu2   Cu    Cu3+1 0.500010 0.500020 0.359330 0.947270
H1    H     H_    0.101640 0.545999 0.720500 0.139058
H2    H     H_    0.312762 0.440404 0.127288 0.171599
H3    H     H_    0.107909 0.381639 0.693763 0.114150
H4    H     H_    0.313234 0.436779 0.869825 0.115954
H5    H     H_    0.774339 0.632384 0.876972 0.109928
H6    H     H_    0.627261 0.720259 0.879946 0.143369
H7    H     H_    0.776973 0.625364 0.123382 0.184848
H8    H     H_    0.632547 0.719611 0.130129 0.145113
H9    H     H_    0.896414 0.364344 0.671462 0.125550
H10   H     H_    0.892867 0.521742 0.730982 0.128702
H11   H     H_    0.125764 0.693654 0.510189 0.059086
H12   H     H_    0.897511 0.433191 0.285545 0.182003
H13   H     H_    0.916736 0.691080 0.558733 0.096429
H14   H     H_    0.083265 0.295988 0.456000 0.091576
H15   H     H_    0.874528 0.311879 0.410499 0.056666
H16   H     H_    0.916912 0.828707 0.219751 0.141622
H17   H     H_    0.994167 0.838894 0.384640 0.113860
H18   H     H_    0.712385 0.855496 0.328386 0.177177
H19   H     H_    0.780215 0.856042 0.500985 0.150536
H20   H     H_    0.907587 0.046511 0.439136 0.133245
H21   H     H_    0.742927 0.070123 0.424860 0.158821
H22   H     H_    0.833513 0.047085 0.268674 0.136503
H23   H     H_    0.104047 0.630853 0.337447 0.180604
H24   H     H_    0.094364 0.294531 0.082191 0.138467
H25   H     H_    0.006740 0.228845 0.221979 0.114569
H26   H     H_    0.292785 0.227318 0.186447 0.167660
H27   H     H_    0.212198 0.165508 0.335849 0.157965
H28   H     H_    0.094212 0.016699 0.181000 0.137768
H29   H     H_    0.259856 0.999921 0.164418 0.148658
H30   H     H_    0.175082 0.078687 0.029945 0.140524
H31   H     H_    0.471267 0.109878 0.272192 0.132567
H32   H     H_    0.467062 0.885004 0.273324 0.127702
H33   H     H_    0.506837 0.895428 0.843580 0.131467
H34   H     H_    0.649595 0.896315 0.730083 0.122007
H35   H     H_    0.507295 0.115794 0.841510 0.137566
H36   H     H_    0.649574 0.117632 0.728221 0.133231
N1    N     N_R   0.500800 0.500930 0.147930 -0.237931
N2    N     N_R   0.500800 0.500890 0.852020 -0.228323
O1    O     O_R   0.500000 0.319640 0.618810 -0.501030
O2    O     O_3   0.118941 0.387919 0.268020 -0.577372
O3    O     O_R   0.500010 0.319680 0.381230 -0.515282
O4    O     O_R   0.317690 0.499960 0.618790 -0.528793
O5    O     O_R   0.317700 0.500000 0.381210 -0.468130
O6    O     O_R   0.499990 0.680320 0.618770 -0.497109
O7    O     O_R   0.500000 0.680360 0.381190 -0.508857
O8    O     O_R   0.682300 0.500000 0.618790 -0.518832
O9    O     O_R   0.682310 0.500040 0.381210 -0.474388
O10   O     O_3   0.881597 0.678225 0.344234 -0.586052

loop_
_geom_bond_atom_site_label_1
_geom_bond_atom_site_label_2
_ccdc_geom_bond_type
C31   H32   S    
C13   O7    A    
C23   O10   S    
C20   O10   S    
C7    H2    S    
C13   C32   S    
C3    H34   S    
C9    N2    A    
C6    C9    A    
C7    C8    A    
C22   H20   S    
C15   C19   S    
C12   C23   S    
C17   C23   S    
C10   H6    S    
C28   C29   A    
C17   H11   S    
C20   H17   S    
Cu2   O5    S    
C7    N1    A    
C30   C31   A    
Cu1   O6    S    
C15   C16   S    
C11   H8    S    
C2    C32   A    
C18   C19   S    
C26   H30   S    
C15   H3    S    
C5    H35   S    
Cu1   N2    S    
C4    C19   S    
C12   C16   S    
C20   H16   S    
Cu2   O9    S    
C14   O8    A    
C9    C10   S    
C16   H10   S    
Cu2   O3    S    
C18   O2    S    
C21   C22   S    
C8    H4    S    
C15   H1    S    
C6    N1    A    
C8    N2    A    
C23   H13   S    
C12   C27   S    
C1    O3    A    
C24   C25   S    
C6    C11   S    
C22   H22   S    
C25   C26   S    
C10   H5    S    
C26   H29   S    
C29   C30   A    
Cu2   O7    S    
C5    C28   S    
Cu1   O4    S    
C31   C32   A    
C1    C29   S    
Cu1   Cu2   S    
C25   H27   S    
C16   H9    S    
C27   H12   S    
Cu1   O1    S    
C25   H26   S    
C12   C14   S    
C13   O6    A    
C3    H33   S    
C18   C27   S    
C3    C5    S    
C5    H36   S    
C18   H14   S    
Cu1   O8    S    
C22   H21   S    
C1    O1    A    
C2    C3    S    
C26   H28   S    
C4    O5    A    
C21   H19   S    
C24   O2    S    
C24   H25   S    
C17   C19   S    
C11   H7    S    
C4    O4    A    
C30   H31   S    
C10   C11   S    
C20   C21   S    
C24   H24   S    
C2    C28   A    
C14   O9    A    
Cu2   N1    S    
C21   H18   S    
C27   H15   S    
C17   H23   S    
