data_str_m2_o1_o4_f0_pcu.sym.231
_audit_creation_date              2013-03-05T16:06:55-0500
_audit_creation_method            fapswitch 2.2
_symmetry_space_group_name_H-M    P1
_symmetry_Int_Tables_number       1
_space_group_crystal_system       triclinic
_cell_length_a                    10.885405
_cell_length_b                    9.697834
_cell_length_c                    10.901464
_cell_angle_alpha                 90.000041
_cell_angle_beta                  103.406235
_cell_angle_gamma                 90.000017
_cell_volume                      1119.4525604

loop_
_atom_site_label
_atom_site_type_symbol
_atom_site_description
_atom_site_fract_x
_atom_site_fract_y
_atom_site_fract_z
_atom_type_partial_charge
O1    O     O_R   0.319640 0.618740 0.499990 -0.532242
O2    O     O_R   0.680360 0.618740 0.500010 -0.532240
O3    O     O_R   0.319620 0.381170 0.499990 -0.503844
O4    O     O_R   0.680380 0.381170 0.500010 -0.503844
C1    C     C_R   0.263844 0.499250 0.506479 0.889664
C2    C     C_R   0.736156 0.499250 0.493520 0.889662
O5    O     O_R   0.499990 0.618810 0.319660 -0.543085
O6    O     O_R   0.500010 0.618810 0.680340 -0.543087
O7    O     O_R   0.499960 0.381240 0.319650 -0.531857
O8    O     O_R   0.500040 0.381240 0.680350 -0.531852
C3    C     C_R   0.502268 0.499974 0.263457 0.846054
C4    C     C_R   0.497732 0.499973 0.736543 0.846066
Cu1   Cu    Cu3+1 0.500000 0.640660 0.500000 1.150722
Cu2   Cu    Cu3+1 0.500000 0.359340 0.500000 1.168767
C5    C     C_R   0.503800 0.619313 0.062869 0.009948
C6    C     C_R   0.496201 0.619313 0.937131 0.009943
C7    C     C_R   0.504858 0.498667 0.131292 -0.097933
C8    C     C_R   0.495143 0.498667 0.868708 -0.097928
C9    C     C_R   0.504073 0.373511 0.065207 -0.097094
C10   C     C_R   0.495927 0.373511 0.934793 -0.097080
H1    H     H_    0.510448 0.275813 0.113510 0.235359
H2    H     H_    0.489552 0.275813 0.886489 0.235358
C11   C     C_3   0.494330 0.772774 0.928131 0.086934
C12   C     C_3   0.505673 0.772774 0.071870 0.086933
H3    H     H_    0.575937 0.815848 0.897834 0.216820
H4    H     H_    0.424066 0.815849 0.102167 0.216819
C13   C     C_R   0.066292 0.369148 0.514336 0.265823
C14   C     C_R   0.933707 0.369148 0.485663 0.265818
C15   C     C_R   0.869165 0.495802 0.486772 -0.223996
C16   C     C_R   0.130835 0.495802 0.513228 -0.223992
C17   C     C_R   0.935357 0.619799 0.493056 -0.098393
C18   C     C_R   0.064643 0.619799 0.506943 -0.098395
H5    H     H_    0.886922 0.717403 0.484727 0.249315
H6    H     H_    0.113077 0.717403 0.515272 0.249314
C19   C     C_R   0.411140 0.075782 0.410266 0.367104
C20   C     C_R   0.588860 0.075783 0.589734 0.367106
C21   C     C_R   0.409413 0.925347 0.411543 0.342781
C22   C     C_R   0.590587 0.925347 0.588457 0.342783
N1    N     N_R   0.500000 0.852070 0.500000 -0.307302
N2    N     N_R   0.500000 0.147940 0.500000 -0.314034
N3    N     N_R   0.372980 0.825320 0.855902 0.150679
O9    O     O_R   0.266885 0.778248 0.874890 -0.306095
O10   O     O_R   0.370729 0.918481 0.769586 -0.296642
N4    N     N_R   0.627023 0.825318 0.144099 0.150679
O11   O     O_R   0.733118 0.778245 0.125111 -0.306094
O12   O     O_R   0.629275 0.918479 0.230416 -0.296640
N5    N     N_R   0.134638 0.244678 0.557307 0.168450
O13   O     O_R   0.211564 0.241699 0.668195 -0.309132
O14   O     O_R   0.117031 0.132900 0.489895 -0.209809
N6    N     N_R   0.865361 0.244678 0.442692 0.168451
O15   O     O_R   0.788434 0.241700 0.331804 -0.309128
O16   O     O_R   0.882969 0.132900 0.510103 -0.209810
S1    S     S_3+6 0.301287 0.164719 0.280729 0.126231
O17   O     O_2   0.346150 0.132929 0.163546 -0.270999
O18   O     O_2   0.169961 0.109242 0.265088 -0.153986
O19   O     O_3   0.277557 0.335299 0.278445 -0.513892
H7    H     H_    0.226196 0.356294 0.192889 0.370435
S2    S     S_3+6 0.698713 0.164720 0.719270 0.126229
O20   O     O_2   0.653852 0.132930 0.836455 -0.270986
O21   O     O_2   0.830039 0.109243 0.734910 -0.154001
O22   O     O_3   0.722442 0.335300 0.721554 -0.513897
H8    H     H_    0.773832 0.356289 0.807101 0.370439
S3    S     S_3+6 0.275888 0.838259 0.304860 0.091759
O23   O     O_2   0.283814 0.686798 0.284526 -0.295970
O24   O     O_2   0.162551 0.862981 0.358250 -0.235878
O25   O     O_3   0.241861 0.900225 0.156918 -0.451663
H9    H     H_    0.157216 0.863046 0.117072 0.406064
S4    S     S_3+6 0.724113 0.838260 0.695140 0.091760
O26   O     O_2   0.716186 0.686799 0.715474 -0.295970
O27   O     O_2   0.837449 0.862981 0.641749 -0.235878
O28   O     O_3   0.758141 0.900226 0.843081 -0.451663
H10   H     H_    0.842786 0.863047 0.882927 0.406063

loop_
_geom_bond_atom_site_label_1
_geom_bond_atom_site_label_2
_geom_bond_distance
_ccdc_geom_bond_type
C21   N1    1.402246 A    
N6    O16   1.298674 A    
C11   C12   1.543025 S    
S3    O24   1.500421 D    
C18   H6    1.077024 S    
O6    Cu1   1.977332 S    
C19   S1    1.839819 S    
O7    C3    1.307243 A    
N3    O9    1.302252 A    
S1    O18   1.499691 D    
O5    C3    1.308132 A    
C9    C10   1.403794 A    
C11   N3    1.463643 S    
O5    Cu1   1.977331 S    
O2    Cu1   1.974740 S    
O6    C4    1.308132 A    
S4    O27   1.500421 D    
O22   H8    0.991040 S    
S2    O22   1.673595 S    
C17   H5    1.077024 S    
O25   H9    0.990993 S    
S3    O25   1.679991 S    
O28   H10   0.990993 S    
N5    O14   1.298674 A    
Cu1   Cu2   2.728195 S    
N4    O11   1.302253 A    
C13   C16   1.416457 A    
C16   C18   1.395339 A    
N3    O10   1.300612 A    
O2    C2    1.317808 A    
O3    Cu2   1.974864 S    
O8    C4    1.307243 A    
S4    O28   1.679992 S    
O1    C1    1.317807 A    
C6    C8    1.386167 A    
C14   C15   1.416457 A    
C21   S3    1.842450 S    
C12   H4    1.099432 S    
C19   N2    1.394086 A    
C6    C11   1.491297 S    
C20   S2    1.839819 S    
C11   H3    1.099432 S    
O4    Cu2   1.974863 S    
C22   N1    1.402245 A    
C12   N4    1.463643 S    
Cu1   N1    2.050219 S    
O4    C2    1.305703 A    
O1    Cu1   1.974741 S    
C5    C6    1.353938 A    
C22   S4    1.842449 S    
Cu2   N2    2.050122 S    
C20   C22   1.459126 A    
N5    O13   1.301520 A    
O3    C1    1.305702 A    
C20   N2    1.394085 A    
C2    C15   1.467041 S    
O19   H7    0.991034 S    
C8    C10   1.410460 A    
C15   C17   1.395339 A    
C1    C16   1.467042 S    
O8    Cu2   1.977416 S    
S1    O19   1.673596 S    
C13   N5    1.438183 S    
C13   C14   1.404084 A    
C5    C7    1.386167 A    
O7    Cu2   1.977418 S    
C14   N6    1.438183 S    
C5    C12   1.491296 S    
C7    C9    1.410460 A    
N6    O15   1.301519 A    
C19   C21   1.459125 A    
S2    O20   1.501579 D    
S1    O17   1.501579 D    
S2    O21   1.499691 D    
S4    O26   1.490955 D    
N4    O12   1.300612 A    
C3    C7    1.447646 S    
C17   C18   1.380104 A    
C10   H2    1.078350 S    
S3    O23   1.490954 D    
C9    H1    1.078350 S    
C4    C8    1.447648 S    
