data_str_m2_o4_o9_f0_pcu.sym.67
_audit_creation_date              2013-03-05T16:34:13-0500
_audit_creation_method            fapswitch 2.2
_symmetry_space_group_name_H-M    P1
_symmetry_Int_Tables_number       1
_space_group_crystal_system       triclinic
_cell_length_a                    10.885675
_cell_length_b                    10.811917
_cell_length_c                    9.569172
_cell_angle_alpha                 89.814369
_cell_angle_beta                  90.683267
_cell_angle_gamma                 91.072727
_cell_volume                      1125.96125591

loop_
_atom_site_label
_atom_site_type_symbol
_atom_site_description
_atom_site_fract_x
_atom_site_fract_y
_atom_site_fract_z
_atom_type_partial_charge
O1    O     O_R   0.500000 0.319640 0.618810 -0.581998
O2    O     O_R   0.500010 0.319680 0.381230 -0.597649
C1    C     C_R   0.498830 0.262554 0.499916 0.794449
O3    O     O_R   0.319640 0.499990 0.618790 -0.585556
O4    O     O_R   0.319650 0.500030 0.381210 -0.566566
C2    C     C_R   0.262077 0.499771 0.498836 0.793455
Cu1   Cu    Cu3+1 0.499990 0.499980 0.640670 0.951565
Cu2   Cu    Cu3+1 0.500010 0.500020 0.359330 0.943653
O5    O     O_R   0.499990 0.680320 0.618770 -0.583698
O6    O     O_R   0.500000 0.680360 0.381190 -0.580584
O7    O     O_R   0.680350 0.499970 0.618790 -0.571318
O8    O     O_R   0.680360 0.500010 0.381210 -0.591264
C3    C     C_R   0.498577 0.737507 0.499613 0.796015
C4    C     C_R   0.737422 0.497151 0.501081 0.788973
H1    H     H_    0.237529 0.576059 0.861235 0.170782
C5    C     C_R   0.188684 0.672208 0.047086 -0.243048
H2    H     H_    0.212852 0.762180 0.004548 0.146795
C6    C     C_R   0.142992 0.662404 0.182319 -0.133574
H3    H     H_    0.131047 0.744993 0.244056 0.128715
C7    C     C_R   0.112751 0.545880 0.237055 0.082995
C8    C     C_R   0.127624 0.439461 0.156465 -0.230554
H4    H     H_    0.103658 0.351356 0.203630 0.120897
C9    C     C_R   0.171840 0.448226 0.018306 0.543596
C10   C     C_R   0.202498 0.566192 0.965963 -0.203514
C11   C     C_R   0.932183 0.534506 0.383271 -0.247186
H5    H     H_    0.880963 0.563467 0.291567 0.145611
C12   C     C_R   0.871027 0.494505 0.503048 -0.086835
C13   C     C_R   0.938631 0.451752 0.619942 -0.007716
C14   C     C_R   0.066229 0.459372 0.616938 -0.249105
H6    H     H_    0.117931 0.426554 0.705778 0.215317
C15   C     C_R   0.127670 0.498786 0.496646 -0.094546
C16   C     C_R   0.059047 0.532132 0.376603 0.025494
C17   C     C_R   0.890222 0.438417 0.874949 -0.140561
H7    H     H_    0.939027 0.525324 0.892001 0.127654
C18   C     C_R   0.834214 0.378219 0.987776 -0.148124
H8    H     H_    0.841088 0.417712 0.091292 0.132727
C19   C     C_R   0.770761 0.266098 0.967333 -0.130027
H9    H     H_    0.728269 0.219188 0.054943 0.119392
C20   C     C_R   0.763275 0.213960 0.834004 -0.141081
H10   H     H_    0.716432 0.125915 0.818592 0.117793
C21   C     C_R   0.817185 0.274927 0.720542 -0.098338
H11   H     H_    0.810200 0.233829 0.617590 0.100295
C22   C     C_R   0.880442 0.388116 0.740207 0.145245
C23   C     C_R   0.423902 0.062143 0.593855 0.124246
C24   C     C_R   0.492403 0.129355 0.496511 -0.090625
C25   C     C_R   0.545497 0.065914 0.385202 -0.232816
H12   H     H_    0.592912 0.115491 0.302636 0.151174
C26   C     C_R   0.545284 0.937024 0.385219 -0.217171
H13   H     H_    0.593069 0.890020 0.303282 0.147832
C27   C     C_R   0.491651 0.870680 0.496035 -0.089653
C28   C     C_R   0.423290 0.934928 0.593597 0.116527
C29   C     C_3   0.417055 0.927753 0.749118 -0.476334
C30   C     C_3   0.417905 0.068451 0.749157 -0.487089
H14   H     H_    0.328922 0.885867 0.785277 0.189190
H15   H     H_    0.500843 0.889152 0.797454 0.198841
H16   H     H_    0.330227 0.107625 0.784506 0.202195
H17   H     H_    0.501940 0.110038 0.797665 0.195313
C31   C     C_R   0.532147 0.604568 0.073540 0.284230
N1    N     N_R   0.500790 0.500930 0.147930 -0.192188
C32   C     C_R   0.462181 0.398915 0.074034 -0.067377
H18   H     H_    0.431328 0.316620 0.128615 0.142995
C33   C     C_R   0.462721 0.398800 0.925696 -0.010547
H19   H     H_    0.432452 0.316595 0.870789 0.164616
N2    N     N_R   0.500790 0.500890 0.852020 -0.196216
C34   C     C_R   0.531668 0.604714 0.926090 0.248101
C35   C     C_3   0.652754 0.671030 0.921168 -0.499932
C36   C     C_3   0.653799 0.670288 0.079357 -0.514074
H20   H     H_    0.725294 0.614545 0.874652 0.225638
H21   H     H_    0.646988 0.765298 0.876397 0.181318
H22   H     H_    0.727372 0.612693 0.125090 0.205998
H23   H     H_    0.647828 0.764372 0.124003 0.183747
O9    O     O_3   0.189479 0.347845 0.929674 -0.614719
C37   C     C_3   0.145213 0.233566 0.982070 -0.396173
H24   H     H_    0.151405 0.163296 0.898601 0.189625
H25   H     H_    0.046635 0.237529 0.009886 0.190156
H26   H     H_    0.202767 0.202356 0.071783 0.164597

loop_
_geom_bond_atom_site_label_1
_geom_bond_atom_site_label_2
_geom_bond_distance
_ccdc_geom_bond_type
C35   H20   1.105826 S    
C37   H25   1.110325 S    
C21   H11   1.083311 S    
C18   H8    1.081169 S    
Cu1   Cu2   2.692191 S    
C20   C21   1.397772 A    
C24   C25   1.404741 A    
C23   C24   1.394166 A    
Cu1   O7    1.976956 S    
C19   H9    1.082463 S    
C13   C14   1.390526 A    
C18   C19   1.397097 A    
Cu2   N1    2.023034 S    
O4    C2    1.294781 A    
O7    C4    1.293541 A    
C35   H21   1.106901 S    
C32   C33   1.419559 A    
C6    H3    1.082995 S    
C37   H24   1.107642 S    
O5    C3    1.295390 A    
C33   N2    1.368188 A    
C23   C30   1.490164 S    
C5    H2    1.082398 S    
C9    C10   1.404600 A    
C4    C12   1.455092 S    
C6    C7    1.397934 A    
C29   H15   1.105875 S    
C11   C16   1.383955 A    
C26   C27   1.404999 A    
C35   C36   1.513642 S    
N1    C32   1.368883 A    
C5    C10   1.397891 A    
C8    H4    1.081623 S    
C21   C22   1.405026 A    
O3    Cu1   1.971881 S    
C29   H14   1.111700 S    
C27   C28   1.395713 A    
C25   C26   1.393498 A    
C28   C29   1.492257 S    
C17   C22   1.403102 A    
O3    C2    1.301167 A    
C20   H10   1.081149 S    
C30   H17   1.109179 S    
C11   H5    1.082625 S    
C1    C24   1.440987 S    
C32   H18   1.080397 S    
O1    C1    1.295924 A    
C14   H6    1.076787 S    
C31   C34   1.410912 A    
C15   C16   1.412264 A    
Cu2   O8    1.971882 S    
C33   H19   1.078205 S    
C17   H7    1.082602 S    
C5    C6    1.394898 A    
C23   C28   1.375339 A    
Cu2   O6    1.961686 S    
H1    C10   1.080755 S    
O8    C4    1.298485 A    
C8    C9    1.414627 A    
C37   H26   1.112007 S    
C29   C30   1.521073 S    
C7    C16   1.470077 S    
C30   H16   1.108382 S    
Cu1   O5    1.960374 S    
C25   H12   1.083786 S    
C26   H13   1.079730 S    
O1    Cu1   1.961686 S    
C9    O9    1.397048 S    
O2    Cu2   1.960377 S    
O9    C37   1.410567 S    
O6    C3    1.292860 A    
O4    Cu2   1.976956 S    
C11   C12   1.395755 A    
C13   C22   1.481548 S    
C36   H22   1.108723 S    
N2    C34   1.364111 A    
O2    C1    1.291133 A    
C31   N1    1.365696 A    
C19   C20   1.397381 A    
C17   C18   1.399024 A    
C2    C15   1.462850 S    
C36   H23   1.107910 S    
Cu1   N2    2.022415 S    
C3    C27   1.443509 S    
C31   C36   1.491620 S    
C7    C8    1.400176 A    
C14   C15   1.399448 A    
C34   C35   1.489821 S    
C12   C13   1.412871 A    
