data_str_m2_o2_o5_f0_pcu.sym.74
_audit_creation_date              2012-10-26T20:48:49-0400
_audit_creation_method            fapswitch 2.2
_symmetry_space_group_name_H-M    P1
_symmetry_Int_Tables_number       1
_space_group_crystal_system       triclinic
_cell_length_a                    15.257904
_cell_length_b                    13.9939
_cell_length_c                    9.148248
_cell_angle_alpha                 89.907571
_cell_angle_beta                  93.704383
_cell_angle_gamma                 89.267356
_cell_volume                      1949.06552398

loop_
_atom_site_label
_atom_site_type_symbol
_atom_type_description
_atom_site_fract_x
_atom_site_fract_y
_atom_site_fract_z
_atom_type_partial_charge
C1    C     C_R   0.330014 0.500239 0.502359 0.585661
C2    C     C_R   0.577453 0.890896 0.537830 0.270124
C3    C     C_R   0.499722 0.500048 0.220673 0.548185
C4    C     C_R   0.500296 0.499945 0.779330 0.551301
C5    C     C_R   0.499846 0.054440 0.500280 -0.060626
C6    C     C_R   0.500397 0.945481 0.499603 -0.059720
C7    C     C_1   0.499913 0.500047 0.065428 -0.022107
C8    C     C_1   0.500114 0.499914 0.934577 -0.020312
C9    C     C_R   0.089578 0.565504 0.434976 -0.116942
C10   C     C_R   0.904995 0.405629 0.484471 -0.115122
C11   C     C_R   0.907383 0.576484 0.518935 -0.114376
C12   C     C_R   0.670192 0.499033 0.498143 0.565595
C13   C     C_R   0.100430 0.416206 0.567183 -0.113750
C14   C     C_R   0.180524 0.574962 0.448122 0.221828
C15   C     C_R   0.812994 0.406691 0.485781 0.228796
C16   C     C_R   0.816161 0.580693 0.507012 0.224027
C17   C     C_R   0.192314 0.418103 0.565569 0.226037
C18   C     C_R   0.233298 0.498737 0.506667 0.033691
C19   C     C_R   0.767403 0.495515 0.496504 0.023402
C20   C     C_R   0.048808 0.489335 0.500394 -0.048308
C21   C     C_R   0.952416 0.489866 0.503507 -0.049658
C22   C     C_3   0.196826 0.734420 0.485768 -0.051814
C23   C     C_R   0.544119 0.207340 0.611496 0.342897
C24   C     C_3   0.789448 0.255445 0.571039 -0.099109
C25   C     C_3   0.773589 0.707269 0.364913 -0.061471
C26   C     C_3   0.230786 0.259878 0.560103 -0.083416
C27   C     C_3   0.528432 0.031982 0.832440 -0.082140
C28   C     C_3   0.307519 0.962065 0.565115 -0.118897
C29   C     C_3   0.472413 0.035160 0.167265 -0.079778
C30   C     C_3   0.689234 0.970113 0.436540 -0.083841
C31   C     C_R   0.429725 0.793576 0.439349 0.326936
C32   C     C_R   0.455609 0.208715 0.388830 0.337222
C33   C     C_R   0.571190 0.791313 0.558944 0.342788
C34   C     C_R   0.541741 0.106659 0.616116 0.249045
C35   C     C_R   0.423562 0.893155 0.460894 0.273432
C36   C     C_R   0.457855 0.108041 0.384557 0.262212
Cu1   Cu    Cu3+1 0.500000 0.596430 0.500000 0.973811
Cu2   Cu    Cu3+1 0.500000 0.403570 0.500000 1.015206
H1    H     H_    0.050627 0.620375 0.376661 0.127370
H2    H     H_    0.125716 0.741298 0.504578 0.069405
H3    H     H_    0.214176 0.801622 0.431205 0.210513
H4    H     H_    0.787679 0.287319 0.682384 0.129564
H5    H     H_    0.854667 0.222052 0.556159 0.105574
H6    H     H_    0.740610 0.197348 0.563361 0.171692
H7    H     H_    0.740600 0.658374 0.283229 0.111648
H8    H     H_    0.840871 0.724185 0.333278 0.093427
H9    H     H_    0.735027 0.774723 0.362325 0.158655
H10   H     H_    0.238673 0.268464 0.440570 0.134211
H11   H     H_    0.165810 0.228764 0.578788 0.101238
H12   H     H_    0.939359 0.339231 0.464718 0.120382
H13   H     H_    0.281922 0.208098 0.602733 0.142687
H14   H     H_    0.483397 0.976037 0.787243 0.084847
H15   H     H_    0.489865 0.094191 0.870480 0.129267
H16   H     H_    0.566931 0.000095 0.927589 0.135380
H17   H     H_    0.344633 0.020656 0.621426 0.100299
H18   H     H_    0.239122 0.988239 0.541699 0.134871
H19   H     H_    0.305041 0.899005 0.639143 0.088956
H20   H     H_    0.519815 0.980258 0.213021 0.081604
H21   H     H_    0.508321 0.097778 0.127255 0.133626
H22   H     H_    0.434619 0.002067 0.073458 0.135850
H23   H     H_    0.942799 0.642535 0.536160 0.130860
H24   H     H_    0.666510 0.045139 0.419622 0.116557
H25   H     H_    0.669805 0.927204 0.337384 0.062588
H26   H     H_    0.762047 0.970679 0.447557 0.144547
H27   H     H_    0.069687 0.358410 0.622794 0.123324
H28   H     H_    0.616098 0.309849 0.686510 0.361398
H29   H     H_    0.388902 0.694719 0.308157 0.374854
H30   H     H_    0.383046 0.312712 0.312361 0.357507
H31   H     H_    0.613610 0.693475 0.692681 0.355548
H32   H     H_    0.235872 0.729076 0.592477 0.130903
N1    N     N_R   0.500000 0.258690 0.500000 -0.298370
N2    N     N_R   0.500000 0.741310 0.500000 -0.323455
O1    O     O_R   0.371460 0.581430 0.500010 -0.466164
O2    O     O_3   0.364347 0.752274 0.352494 -0.626205
O3    O     O_3   0.408788 0.253841 0.274682 -0.648874
O4    O     O_3   0.638732 0.747201 0.640381 -0.590593
O5    O     O_3   0.217072 0.656554 0.394653 -0.518025
O6    O     O_3   0.766956 0.322921 0.459485 -0.546304
O7    O     O_3   0.775480 0.669200 0.507997 -0.492486
O8    O     O_3   0.242699 0.346808 0.636504 -0.537874
O9    O     O_3   0.587943 0.060546 0.730655 -0.479334
O10   O     O_3   0.343105 0.938018 0.431225 -0.484596
O11   O     O_3   0.412400 0.063457 0.269254 -0.470732
O12   O     O_R   0.628540 0.418570 0.499990 -0.487972
O13   O     O_3   0.658507 0.932659 0.567172 -0.469044
O14   O     O_R   0.628540 0.581430 0.499990 -0.458434
O15   O     O_R   0.371460 0.418570 0.500010 -0.502977
O16   O     O_R   0.500000 0.581420 0.288390 -0.536898
O17   O     O_R   0.500000 0.418580 0.711610 -0.472328
O18   O     O_R   0.500000 0.581420 0.711610 -0.536967
O19   O     O_R   0.500000 0.418580 0.288390 -0.475639
O20   O     O_3   0.591394 0.251182 0.724843 -0.656693

loop_
_geom_bond_atom_site_label_1
_geom_bond_atom_site_label_2
_ccdc_geom_bond_type
C1    O15   A    
C30   H26   S    
C24   H4    S    
C14   C18   A    
Cu1   O16   S    
C4    C8    S    
C32   O3    S    
C28   H18   S    
C27   H16   S    
C7    C8    T    
C13   H27   S    
C28   H19   S    
H30   O3    S    
C15   C19   A    
Cu2   O17   S    
C1    C18   S    
Cu1   O18   S    
H31   O4    S    
C32   C36   A    
C29   O11   S    
C3    C7    S    
C10   C15   A    
C5    C6    S    
C22   H3    S    
C36   O11   S    
C5    C36   A    
C9    H1    S    
C6    C35   A    
C12   O12   A    
C2    O13   S    
C3    O19   A    
C14   O5    S    
C33   O4    S    
C33   N2    A    
C35   O10   S    
C29   H21   S    
C34   O9    S    
C25   H9    S    
C26   H10   S    
C30   H25   S    
C2    C6    A    
C28   H17   S    
C32   N1    A    
C4    O18   A    
C10   C21   A    
C28   O10   S    
C23   N1    A    
Cu1   O14   S    
C27   O9    S    
C26   H11   S    
C31   O2    S    
H28   O20   S    
Cu2   O19   S    
C11   C21   A    
C17   O8    S    
C26   O8    S    
C9    C14   A    
Cu1   Cu2   S    
C11   C16   A    
C9    C20   A    
C29   H22   S    
C23   C34   A    
C22   H2    S    
C5    C34   A    
C17   C18   A    
H29   O2    S    
C20   C21   S    
C30   O13   S    
C2    C33   A    
C24   O6    S    
C31   N2    A    
C30   H24   S    
C24   H6    S    
C31   C35   A    
C10   H12   S    
C25   H7    S    
C27   H14   S    
C4    O17   A    
Cu1   O1    S    
Cu2   N1    S    
C13   C20   A    
Cu2   O12   S    
C3    O16   A    
C25   O7    S    
C22   O5    S    
C11   H23   S    
C27   H15   S    
C13   C17   A    
C12   O14   A    
Cu2   O15   S    
C16   O7    S    
C1    O1    A    
C26   H13   S    
C16   C19   A    
C12   C19   S    
C15   O6    S    
C29   H20   S    
Cu1   N2    S    
C24   H5    S    
C23   O20   S    
C25   H8    S    
C22   H32   S    
