data_str_m2_o4_o14_f0_pcu.sym.82
_audit_creation_date              2012-12-10T18:59:18-0500
_audit_creation_method            fapswitch 2.2
_symmetry_space_group_name_H-M    P1
_symmetry_Int_Tables_number       1
_space_group_crystal_system       triclinic
_cell_length_a                    10.872893
_cell_length_b                    10.882298
_cell_length_c                    9.577627
_cell_angle_alpha                 90.231863
_cell_angle_beta                  91.702568
_cell_angle_gamma                 92.788397
_cell_volume                      1131.38600145

loop_
_atom_site_label
_atom_site_type_symbol
_atom_type_description
_atom_site_fract_x
_atom_site_fract_y
_atom_site_fract_z
_atom_type_partial_charge
C1    C     C_R   0.500255 0.262496 0.499776 0.810707
C2    C     C_R   0.072483 0.569569 0.607332 0.095058
C3    C     C_R   0.130428 0.515446 0.494885 -0.169271
C4    C     C_R   0.061014 0.452354 0.390252 -0.283568
C5    C     C_R   0.932660 0.444547 0.393288 0.473796
C6    C     C_R   0.873779 0.490163 0.510879 -0.225196
C7    C     C_R   0.503400 0.064046 0.624035 0.113193
C8    C     C_R   0.501482 0.129126 0.498951 -0.102740
C9    C     C_R   0.488050 0.064111 0.372693 -0.259800
C10   C     C_R   0.468161 0.936805 0.371945 -0.025281
C11   C     C_R   0.481431 0.870553 0.498167 -0.140948
C12   C     C_R   0.263250 0.506105 0.498051 0.819393
C13   C     C_R   0.495059 0.936097 0.624175 0.111344
C14   C     C_3   0.403122 0.936411 0.738279 -0.482191
C15   C     C_3   0.415017 0.074595 0.738608 -0.446616
C16   C     C_R   0.596362 0.554565 0.076868 0.087540
C17   C     C_R   0.412208 0.433276 0.072980 0.539224
C18   C     C_R   0.412227 0.433330 0.923383 -0.091295
C19   C     C_R   0.593203 0.559372 0.929585 0.144659
C20   C     C_3   0.622366 0.695070 0.933016 0.321672
C21   C     C_3   0.641068 0.685379 0.090129 -0.531476
C22   C     C_R   0.491297 0.736995 0.499585 0.781940
C23   C     C_R   0.738251 0.495788 0.503110 0.849682
C24   C     C_R   0.138602 0.647458 0.705044 -0.139456
C25   C     C_R   0.088452 0.675509 0.832117 -0.164466
C26   C     C_R   0.972886 0.625852 0.863318 -0.103746
C27   C     C_R   0.902062 0.559247 0.762100 -0.050852
C28   C     C_R   0.946610 0.540238 0.626549 0.008908
Cu1   Cu    Cu3+1 0.499990 0.499980 0.640670 0.964337
Cu2   Cu    Cu3+1 0.500010 0.500020 0.359330 1.011516
H1    H     H_    0.106937 0.405597 0.308108 0.203032
H2    H     H_    0.436773 0.898654 0.838324 0.198852
H3    H     H_    0.328541 0.116820 0.703644 0.219476
H4    H     H_    0.459853 0.114368 0.835549 0.188504
H5    H     H_    0.540807 0.745230 0.899060 0.104439
H6    H     H_    0.739094 0.693888 0.126639 0.190293
H7    H     H_    0.580049 0.742956 0.148426 0.211444
H8    H     H_    0.230087 0.685385 0.684964 0.136878
H9    H     H_    0.141192 0.731606 0.908362 0.152926
H10   H     H_    0.936843 0.641536 0.965400 0.144747
H11   H     H_    0.816485 0.518372 0.796434 0.175810
H12   H     H_    0.483693 0.112750 0.274802 0.160345
H13   H     H_    0.309999 0.899687 0.703309 0.194842
N1    N     N_R   0.500790 0.500930 0.147930 -0.207714
N2    N     N_R   0.500790 0.500890 0.852020 -0.256725
O1    O     O_R   0.500000 0.319640 0.618810 -0.587377
O2    O     O_R   0.500010 0.319680 0.381230 -0.562348
O3    O     O_R   0.319640 0.499980 0.618820 -0.586802
O4    O     O_R   0.319650 0.500020 0.381230 -0.529013
O5    O     O_R   0.499990 0.680320 0.618770 -0.573531
O6    O     O_R   0.500000 0.680360 0.381190 -0.583086
O7    O     O_R   0.680350 0.499980 0.618770 -0.590270
O8    O     O_R   0.680360 0.500020 0.381180 -0.534853
O9    O     O_3   0.314732 0.378908 0.143980 -0.566544
C29   C     C_3   0.309893 0.249521 0.128851 -0.325835
H14   H     H_    0.293444 0.208073 0.232608 0.192858
H15   H     H_    0.394898 0.211631 0.086804 0.121387
H16   H     H_    0.229756 0.220017 0.060333 0.179808
C30   C     C_1   0.312468 0.367305 0.849084 0.363525
N3    N     N_1   0.230782 0.314471 0.791647 -0.327741
O10   O     O_3   0.730560 0.728110 0.862453 -0.568960
C31   C     C_3   0.754636 0.856373 0.872776 -0.317842
H17   H     H_    0.774130 0.885474 0.982972 0.163329
H18   H     H_    0.677527 0.907827 0.827284 0.165434
H19   H     H_    0.837812 0.881135 0.812670 0.196321
O11   O     O_3   0.864413 0.376411 0.292567 -0.565600
C32   C     C_3   0.883981 0.426531 0.158956 -0.276736
H20   H     H_    0.878925 0.528338 0.159544 0.142163
H21   H     H_    0.973206 0.399361 0.117810 0.167732
H22   H     H_    0.810169 0.388935 0.086132 0.178087
C33   C     C_1   0.414634 0.881332 0.245489 0.228374
N4    N     N_1   0.369737 0.838186 0.144480 -0.335698

loop_
_geom_bond_atom_site_label_1
_geom_bond_atom_site_label_2
_ccdc_geom_bond_type
C7    C13   A    
C24   H8    S    
Cu2   O6    S    
C19   N2    A    
C16   C21   S    
C23   O8    A    
C31   H17   S    
C1    C8    S    
C2    C28   A    
C9    C10   A    
C16   N1    A    
C11   C22   S    
C19   C20   S    
C12   O3    A    
Cu1   O1    S    
C22   O5    A    
C32   H22   S    
Cu2   N1    S    
C10   C33   S    
C20   C21   S    
C29   H14   S    
C7    C15   S    
C12   O4    A    
C23   O7    A    
C17   N1    A    
O11   C32   S    
C30   N3    T    
C21   H6    S    
C13   C14   S    
C5    O11   S    
C5    C6    A    
C11   C13   A    
C26   H10   S    
C26   C27   A    
Cu1   Cu2   S    
C18   C30   S    
C20   O10   S    
C16   C19   A    
C9    H12   S    
C6    C23   S    
C1    O2    A    
Cu2   O4    S    
C17   C18   A    
C2    C3    A    
Cu1   O5    S    
C29   H15   S    
C2    C24   A    
O10   C31   S    
Cu2   O8    S    
C6    C28   A    
C1    O1    A    
C22   O6    A    
C4    H1    S    
C7    C8    A    
C10   C11   A    
Cu1   O3    S    
C32   H20   S    
C18   N2    A    
Cu2   O2    S    
C33   N4    T    
C21   H7    S    
C24   C25   A    
C29   H16   S    
Cu1   N2    S    
C27   C28   A    
C27   H11   S    
C14   C15   S    
C14   H13   S    
C31   H18   S    
C3    C12   S    
C15   H4    S    
C31   H19   S    
C25   C26   A    
O9    C29   S    
C20   H5    S    
C4    C5    A    
C17   O9    S    
C15   H3    S    
C25   H9    S    
C3    C4    A    
C14   H2    S    
C8    C9    A    
C32   H21   S    
Cu1   O7    S    
