data_str_m2_o1_o17_f0_pcu.sym.109
_audit_creation_date              2012-12-10T17:57:48-0500
_audit_creation_method            fapswitch 2.2
_symmetry_space_group_name_H-M    P1
_symmetry_Int_Tables_number       1
_space_group_crystal_system       triclinic
_cell_length_a                    10.891139
_cell_length_b                    9.766401
_cell_length_c                    14.899845
_cell_angle_alpha                 88.26765
_cell_angle_beta                  90.44926
_cell_angle_gamma                 89.718993
_cell_volume                      1584.06123941

loop_
_atom_site_label
_atom_site_type_symbol
_atom_type_description
_atom_site_fract_x
_atom_site_fract_y
_atom_site_fract_z
_atom_type_partial_charge
C1    C     C_R   0.262785 0.500314 0.499860 0.765518
C2    C     C_R   0.737303 0.499861 0.499257 0.765147
C3    C     C_R   0.278587 0.486159 0.046187 -0.283354
C4    C     C_R   0.722695 0.545688 0.954662 -0.286582
C5    C     C_R   0.064800 0.383219 0.527844 -0.184180
C6    C     C_R   0.935469 0.617333 0.469138 -0.179733
C7    C     C_R   0.937335 0.382568 0.526543 -0.199015
C8    C     C_R   0.063202 0.618076 0.470256 -0.205928
C9    C     C_R   0.871666 0.499850 0.498120 -0.008660
C10   C     C_R   0.128604 0.500795 0.499509 -0.009323
C11   C     C_R   0.446088 0.077195 0.431677 0.036964
C12   C     C_R   0.552883 0.922266 0.568730 0.033596
C13   C     C_R   0.547905 0.069403 0.570497 0.020660
C14   C     C_R   0.455049 0.930731 0.428385 0.026767
C15   C     C_R   0.498153 0.501950 0.329768 0.801581
C16   C     C_R   0.503745 0.498065 0.670515 0.801003
C17   C     C_R   0.614059 0.516786 0.813810 -0.213003
C18   C     C_R   0.388133 0.497919 0.186815 -0.213484
C19   C     C_R   0.505297 0.493781 0.767283 -0.032850
C20   C     C_R   0.498333 0.507098 0.233645 -0.028972
C21   C     C_R   0.395850 0.472696 0.812469 -0.271948
C22   C     C_R   0.609109 0.524244 0.189342 -0.250983
C23   C     C_R   0.390494 0.486623 0.905719 0.058260
C24   C     C_R   0.612559 0.526008 0.095394 0.061715
C25   C     C_R   0.501760 0.505900 0.953493 0.035680
C26   C     C_R   0.501139 0.509654 0.047384 0.031084
C27   C     C_R   0.613748 0.521499 0.907236 0.088537
C28   C     C_R   0.388766 0.497800 0.093520 0.085950
C29   C     C_R   0.277759 0.481282 0.952562 -0.010209
C30   C     C_R   0.723532 0.546207 0.048397 -0.019221
Cu1   Cu    Cu3+1 0.500000 0.640660 0.500000 0.943684
Cu2   Cu    Cu3+1 0.500000 0.359340 0.500000 0.943500
H1    H     H_    0.697862 0.533090 0.776724 0.138544
H2    H     H_    0.302499 0.489347 0.223277 0.136473
N1    N     N_R   0.500000 0.852070 0.500000 -0.204804
N2    N     N_R   0.500000 0.147930 0.500000 -0.204443
O1    O     O_R   0.319640 0.618740 0.499990 -0.585464
O2    O     O_R   0.680360 0.381260 0.500010 -0.585291
O3    O     O_R   0.680360 0.618740 0.500010 -0.586923
O4    O     O_R   0.319640 0.381260 0.499990 -0.584347
O5    O     O_R   0.499970 0.618800 0.370260 -0.569517
O6    O     O_R   0.500030 0.381200 0.629740 -0.573446
O7    O     O_R   0.500030 0.618800 0.629740 -0.579727
O8    O     O_R   0.499970 0.381200 0.370260 -0.581892
H3    H     H_    0.315876 0.447016 0.773195 0.146397
H4    H     H_    0.691330 0.536875 0.229410 0.147129
C31   C     C_R   0.158100 0.469023 0.905934 0.138688
C32   C     C_R   0.126416 0.557694 0.833171 -0.180385
C33   C     C_R   0.023526 0.530714 0.780572 -0.155478
C34   C     C_R   0.946305 0.422693 0.804509 -0.131151
C35   C     C_R   0.970731 0.342556 0.882086 -0.149665
C36   C     C_R   0.077240 0.364021 0.931850 -0.145138
H5    H     H_    0.185427 0.642417 0.813951 0.128120
H6    H     H_    0.004708 0.591978 0.720506 0.146961
H7    H     H_    0.867339 0.402678 0.763025 0.136065
H8    H     H_    0.909095 0.261945 0.903324 0.120988
H9    H     H_    0.098198 0.296460 0.988986 0.112503
C37   C     C_R   0.839204 0.575708 0.096379 0.140429
C38   C     C_R   0.880768 0.711208 0.099890 -0.152265
C39   C     C_R   0.976348 0.744204 0.158449 -0.152917
C40   C     C_R   0.030550 0.642203 0.213677 -0.117497
C41   C     C_R   0.991827 0.506719 0.208548 -0.161701
C42   C     C_R   0.897579 0.472753 0.149218 -0.176168
H10   H     H_    0.835674 0.791891 0.060304 0.110548
H11   H     H_    0.005998 0.849431 0.162773 0.119818
H12   H     H_    0.101574 0.667858 0.261314 0.121222
H13   H     H_    0.032698 0.429044 0.252448 0.144510
H14   H     H_    0.865417 0.368040 0.148079 0.121048
H15   H     H_    0.192686 0.480628 0.082350 0.168397
H16   H     H_    0.807128 0.565294 0.918910 0.176790
H17   H     H_    0.113242 0.292272 0.552139 0.139633
H18   H     H_    0.886858 0.707903 0.444451 0.138673
H19   H     H_    0.890460 0.290822 0.548690 0.138811
H20   H     H_    0.110606 0.709611 0.447191 0.137592
C43   C     C_R   0.363142 0.146280 0.364897 0.182369
C44   C     C_R   0.400434 0.166372 0.275170 -0.110328
C45   C     C_R   0.313540 0.192486 0.207230 -0.134251
C46   C     C_R   0.189331 0.203474 0.228320 -0.159897
C47   C     C_R   0.151595 0.186816 0.317383 -0.178879
C48   C     C_R   0.237795 0.156239 0.385112 -0.131635
H21   H     H_    0.496075 0.155043 0.257416 0.125237
H22   H     H_    0.342550 0.203247 0.138082 0.140206
H23   H     H_    0.122289 0.223645 0.175498 0.121941
H24   H     H_    0.055056 0.193079 0.333578 0.133855
H25   H     H_    0.206342 0.133205 0.452592 0.114842
C49   C     C_R   0.636798 0.851844 0.634191 0.190420
C50   C     C_R   0.603270 0.837020 0.724982 -0.115219
C51   C     C_R   0.693211 0.816320 0.791508 -0.136009
C52   C     C_R   0.816454 0.803624 0.767900 -0.146733
C53   C     C_R   0.850212 0.814206 0.677720 -0.178101
C54   C     C_R   0.761098 0.839595 0.611352 -0.129447
H26   H     H_    0.508545 0.850564 0.744552 0.119919
H27   H     H_    0.667313 0.811462 0.861486 0.138118
H28   H     H_    0.885861 0.787952 0.819608 0.135445
H29   H     H_    0.946019 0.809200 0.659395 0.130861
H30   H     H_    0.789776 0.860056 0.542912 0.113926
C55   C     C_R   0.586650 0.131560 0.654863 0.196030
C56   C     C_R   0.711933 0.146416 0.673248 -0.131380
C57   C     C_R   0.752438 0.161261 0.761280 -0.165293
C58   C     C_R   0.668060 0.171178 0.831073 -0.110256
C59   C     C_R   0.542543 0.160926 0.813039 -0.135621
C60   C     C_R   0.501854 0.138204 0.725584 -0.139547
H31   H     H_    0.778505 0.130834 0.621145 0.105778
H32   H     H_    0.849777 0.158581 0.775085 0.132999
H33   H     H_    0.699683 0.183252 0.899361 0.120584
H34   H     H_    0.477172 0.166016 0.867191 0.131641
H35   H     H_    0.405052 0.121280 0.713192 0.112369
C61   C     C_R   0.445008 0.874097 0.337948 0.187324
C62   C     C_R   0.550619 0.875469 0.283952 -0.141144
C63   C     C_R   0.541163 0.853477 0.191984 -0.152986
C64   C     C_R   0.426429 0.831007 0.152986 -0.091524
C65   C     C_R   0.321426 0.827234 0.206240 -0.147587
C66   C     C_R   0.330204 0.847382 0.298741 -0.136061
H36   H     H_    0.639459 0.899049 0.312661 0.111506
H37   H     H_    0.622485 0.856179 0.150703 0.128232
H38   H     H_    0.418859 0.816054 0.081473 0.127588
H39   H     H_    0.233170 0.812146 0.174894 0.131323
H40   H     H_    0.247558 0.850350 0.338531 0.106063

loop_
_geom_bond_atom_site_label_1
_geom_bond_atom_site_label_2
_ccdc_geom_bond_type
C50   C51   A    
C59   C60   A    
C64   C65   A    
C6    C9    A    
C4    H16   S    
C55   C56   A    
C53   H29   S    
C7    H19   S    
C45   C46   A    
C6    H18   S    
C58   H33   S    
C41   C42   A    
Cu1   O7    S    
C41   H13   S    
C29   C31   S    
C23   C29   A    
C11   N2    A    
C19   C21   A    
C24   C26   A    
C15   O8    A    
C49   C54   A    
C65   H39   S    
C11   C14   A    
C2    O3    A    
C33   H6    S    
C37   C42   A    
C61   C62   A    
C35   H8    S    
C52   H28   S    
C3    C29   A    
C63   C64   A    
C1    O4    A    
C54   H30   S    
C51   H27   S    
C46   H23   S    
C57   C58   A    
C64   H38   S    
Cu2   O2    S    
C43   C48   A    
C18   C20   A    
C55   C60   A    
C1    O1    A    
C14   C61   S    
C57   H32   S    
C38   C39   A    
C50   H26   S    
C15   C20   S    
C17   H1    S    
C40   H12   S    
C65   C66   A    
C21   H3    S    
C32   H5    S    
C35   C36   A    
C17   C27   A    
C18   C28   A    
C44   C45   A    
C15   O5    A    
C13   N2    A    
C14   N1    A    
C5    C7    A    
C49   C50   A    
C6    C8    A    
C37   C38   A    
C66   H40   S    
Cu1   O1    S    
C39   C40   A    
C61   C66   A    
C43   C44   A    
C48   H25   S    
C2    O2    A    
C31   C32   A    
C8    H20   S    
C34   C35   A    
Cu2   O8    S    
C60   H35   S    
C12   C13   A    
C12   N1    A    
C18   H2    S    
C16   O7    A    
C62   H36   S    
C32   C33   A    
C22   H4    S    
C20   C22   A    
C39   H11   S    
C56   C57   A    
C21   C23   A    
C22   C24   A    
C16   O6    A    
C4    C27   A    
C59   H34   S    
C7    C9    A    
C42   H14   S    
C3    C28   A    
Cu1   O5    S    
C3    H15   S    
C46   C47   A    
Cu1   Cu2   S    
C1    C10   S    
C44   H21   S    
Cu2   N2    S    
C31   C36   A    
C25   C27   A    
C26   C28   A    
C34   H7    S    
C12   C49   S    
C25   C26   A    
C5    C10   A    
C5    H17   S    
C11   C43   S    
C62   C63   A    
C53   C54   A    
C47   H24   S    
C45   H22   S    
C16   C19   S    
C30   C37   S    
C58   C59   A    
C17   C19   A    
Cu1   O3    S    
Cu1   N1    S    
Cu2   O4    S    
C13   C55   S    
C40   C41   A    
C24   C30   A    
C36   H9    S    
C47   C48   A    
C38   H10   S    
C23   C25   A    
C51   C52   A    
C8    C10   A    
C33   C34   A    
Cu2   O6    S    
C52   C53   A    
C2    C9    S    
C63   H37   S    
C4    C30   A    
C56   H31   S    
