data_str_m2_o4_o24_f0_pcu.sym.50
_audit_creation_date              2012-10-26T20:32:02-0400
_audit_creation_method            fapswitch 2.2
_symmetry_space_group_name_H-M    P1
_symmetry_Int_Tables_number       1
_space_group_crystal_system       triclinic
_cell_length_a                    10.669966
_cell_length_b                    10.851894
_cell_length_c                    9.617836
_cell_angle_alpha                 89.642141
_cell_angle_beta                  90.126391
_cell_angle_gamma                 90.054233
_cell_volume                      1113.61796714

loop_
_atom_site_label
_atom_site_type_symbol
_atom_type_description
_atom_site_fract_x
_atom_site_fract_y
_atom_site_fract_z
_atom_type_partial_charge
C1    C     C_R   0.504624 0.263166 0.500433 0.605889
C2    C     C_R   0.449418 0.938792 0.601098 -0.017812
C3    C     C_3   0.366067 0.932681 0.725702 0.153543
C4    C     C_R   0.259824 0.495779 0.499528 0.563239
C5    C     C_3   0.374108 0.074526 0.728193 0.141407
C6    C     C_R   0.520466 0.605771 0.071990 0.105494
C7    C     C_R   0.457027 0.400866 0.072912 0.339656
C8    C     C_R   0.461925 0.400029 0.925266 0.052368
C9    C     C_R   0.518955 0.606296 0.926241 0.131385
C10   C     C_3   0.622324 0.699087 0.917954 0.177258
C11   C     C_3   0.627057 0.694000 0.076922 0.124923
C12   C     C_3   0.959982 0.591235 0.433077 0.210132
C13   C     C_R   0.502025 0.737166 0.500006 0.598430
C14   C     C_R   0.740197 0.497763 0.500279 0.607553
C15   C     C_3   0.041772 0.389675 0.567068 -0.167367
C16   C     C_3   0.957435 0.393052 0.436468 0.205952
C17   C     C_3   0.876613 0.493818 0.501235 0.081532
C18   C     C_3   0.959945 0.492808 0.633211 -0.134878
C19   C     C_3   0.042626 0.590589 0.562153 0.212554
C20   C     C_3   0.817864 0.752512 0.832907 0.002828
C21   C     C_3   0.793402 0.819455 0.694548 -0.239859
C22   C     C_3   0.880136 0.930019 0.674951 -0.441170
C23   C     C_3   0.040628 0.490836 0.364585 -0.128282
C24   C     C_3   0.123314 0.490418 0.497493 -0.024227
C25   C     C_R   0.456079 0.062667 0.604282 -0.016963
C26   C     C_R   0.515183 0.130719 0.501796 0.027511
C27   C     C_R   0.584730 0.066161 0.400359 0.208561
C28   C     C_R   0.589454 0.934325 0.406834 0.167443
C29   C     C_R   0.510143 0.870185 0.500428 0.000178
Cu1   Cu    Cu3+1 0.499990 0.499980 0.640670 1.024675
Cu2   Cu    Cu3+1 0.500010 0.500020 0.359330 1.088166
H1    H     H_    0.408772 0.885752 0.817044 0.059415
H2    H     H_    0.213959 0.139371 0.782637 0.317122
H3    H     H_    0.344482 0.335565 0.207571 0.347717
H4    H     H_    0.913688 0.712968 0.830837 0.192335
H5    H     H_    0.817084 0.819698 0.920281 0.096563
H6    H     H_    0.805784 0.754341 0.607345 0.234582
H7    H     H_    0.695992 0.853885 0.691576 0.145604
H8    H     H_    0.862648 0.999414 0.757056 0.138035
H9    H     H_    0.861933 0.973439 0.572010 0.184062
H10   H     H_    0.979611 0.901279 0.679647 0.215030
H11   H     H_    0.799738 0.704395 0.133011 0.349153
H12   H     H_    0.423409 0.112647 0.820351 0.080366
H13   H     H_    0.127316 0.744303 0.548843 0.358142
H14   H     H_    0.990617 0.738611 0.327659 0.312442
H15   H     H_    0.659349 0.079655 0.217092 0.326701
H16   H     H_    0.749351 0.922208 0.311468 0.336241
H17   H     H_    0.199140 0.888545 0.780333 0.329445
H18   H     H_    0.429767 0.319829 0.870115 0.140130
H19   H     H_    0.587129 0.788489 0.877113 0.026775
H20   H     H_    0.601262 0.782590 0.125498 0.127396
H21   H     H_    0.077075 0.305243 0.619597 0.168354
H22   H     H_    0.926572 0.494825 0.742357 0.170747
H23   H     H_    0.073697 0.489199 0.255251 0.134100
H24   H     H_    0.981503 0.240116 0.341889 0.329010
N1    N     N_R   0.500800 0.500930 0.147930 -0.213668
N2    N     N_R   0.500800 0.500890 0.852020 -0.248467
O1    O     O_R   0.500000 0.319640 0.618810 -0.535751
O2    O     O_3   0.261176 0.133389 0.694222 -0.669714
O3    O     O_3   0.401146 0.301646 0.136229 -0.693696
O4    O     O_3   0.731687 0.654240 0.852708 -0.506219
O5    O     O_3   0.735750 0.638270 0.129648 -0.577938
O6    O     O_3   0.090483 0.695366 0.625909 -0.687713
O7    O     O_3   0.915632 0.698025 0.367843 -0.682915
O8    O     O_3   0.647994 0.132602 0.299621 -0.629983
O9    O     O_3   0.677906 0.867729 0.335005 -0.699712
O10   O     O_3   0.246550 0.889977 0.691706 -0.648321
O11   O     O_R   0.500010 0.319680 0.381230 -0.436084
O12   O     O_R   0.316850 0.499950 0.618770 -0.471110
O13   O     O_R   0.316860 0.499990 0.381190 -0.565301
O14   O     O_R   0.499990 0.680320 0.618770 -0.509506
O15   O     O_R   0.500000 0.680360 0.381190 -0.474565
O16   O     O_R   0.683140 0.500010 0.618810 -0.490924
O17   O     O_R   0.683150 0.500050 0.381230 -0.395445
O18   O     O_3   0.907877 0.288927 0.371464 -0.642555

loop_
_geom_bond_atom_site_label_1
_geom_bond_atom_site_label_2
_ccdc_geom_bond_type
C15   C18   S    
C16   O18   S    
C11   O5    S    
C6    C9    A    
C4    O13   A    
Cu1   O14   S    
C7    C8    A    
C12   C23   S    
C26   C27   A    
C2    C29   A    
C14   O17   A    
C13   C29   S    
C28   C29   A    
Cu1   Cu2   S    
C4    C24   S    
C22   H10   S    
C15   C16   S    
Cu1   N2    S    
C1    O11   A    
C18   C19   S    
C20   O4    S    
C18   H22   S    
C20   H4    S    
Cu2   O13   S    
C21   H7    S    
C19   O6    S    
C16   C17   S    
C12   C17   S    
C23   C24   S    
Cu2   N1    S    
C9    C10   S    
H11   O5    S    
H16   O9    S    
H24   O18   S    
C5    H12   S    
H2    O2    S    
C21   C22   S    
H3    O3    S    
C14   C17   S    
C7    N1    A    
C4    O12   A    
H13   O6    S    
Cu2   O11   S    
C5    O2    S    
C14   O16   A    
H15   O8    S    
C6    C11   S    
Cu1   O16   S    
Cu2   O17   S    
C13   O14   A    
C25   C26   A    
C28   O9    S    
C27   O8    S    
C8    N2    A    
C22   H9    S    
C17   C18   S    
C15   H21   S    
C5    C25   S    
Cu2   O15   S    
C16   C23   S    
C1    C26   S    
C10   O4    S    
C10   H19   S    
C7    O3    S    
Cu1   O12   S    
C23   H23   S    
C15   C24   S    
C3    O10   S    
C6    N1    A    
C3    C5    S    
C13   O15   A    
H14   O7    S    
C2    C3    S    
C1    O1    A    
C12   O7    S    
C22   H8    S    
Cu1   O1    S    
C12   C19   S    
C19   C24   S    
C2    C25   A    
C9    N2    A    
H17   O10   S    
C3    H1    S    
C11   H20   S    
C10   C11   S    
C20   H5    S    
C21   H6    S    
C20   C21   S    
C27   C28   A    
C8    H18   S    
