data_str_m2_o1_o17_f0_pcu.sym.171
_audit_creation_date              2012-12-10T17:57:51-0500
_audit_creation_method            fapswitch 2.2
_symmetry_space_group_name_H-M    P1
_symmetry_Int_Tables_number       1
_space_group_crystal_system       triclinic
_cell_length_a                    10.940031
_cell_length_b                    9.528237
_cell_length_c                    14.994749
_cell_angle_alpha                 89.999819
_cell_angle_beta                  90.396298
_cell_angle_gamma                 89.999908
_cell_volume                      1563.00337382

loop_
_atom_site_label
_atom_site_type_symbol
_atom_type_description
_atom_site_fract_x
_atom_site_fract_y
_atom_site_fract_z
_atom_type_partial_charge
C1    C     C_R   0.262109 0.500063 0.500160 0.868961
C2    C     C_R   0.737891 0.500063 0.499841 0.868965
C3    C     C_R   0.279759 0.522439 0.049290 -0.295213
C4    C     C_R   0.720241 0.522440 0.950710 -0.295213
C5    C     C_R   0.063278 0.372899 0.495245 0.306949
C6    C     C_R   0.936759 0.628078 0.494127 0.299866
C7    C     C_R   0.936722 0.372899 0.504762 0.306940
C8    C     C_R   0.063240 0.628078 0.505877 0.299854
C9    C     C_R   0.871766 0.500318 0.499392 -0.376907
C10   C     C_R   0.128234 0.500318 0.500612 -0.376909
C11   C     C_R   0.455076 0.074298 0.428769 -0.006804
C12   C     C_R   0.545766 0.925702 0.570973 -0.048693
C13   C     C_R   0.544923 0.074297 0.571231 -0.006815
C14   C     C_R   0.454234 0.925703 0.429027 -0.048717
C15   C     C_R   0.500296 0.499974 0.329090 0.762095
C16   C     C_R   0.499704 0.499973 0.670910 0.762092
C17   C     C_R   0.606167 0.514941 0.812916 -0.217004
C18   C     C_R   0.393833 0.514941 0.187084 -0.217004
C19   C     C_R   0.495804 0.500500 0.767247 -0.121742
C20   C     C_R   0.504196 0.500501 0.232754 -0.121742
C21   C     C_R   0.384385 0.486016 0.812947 -0.082089
C22   C     C_R   0.615615 0.486019 0.187054 -0.082087
C23   C     C_R   0.384141 0.503864 0.906881 -0.013241
C24   C     C_R   0.615859 0.503865 0.093119 -0.013241
C25   C     C_R   0.498121 0.508288 0.953061 -0.016865
C26   C     C_R   0.501880 0.508288 0.046939 -0.016864
C27   C     C_R   0.608618 0.513327 0.905464 0.067225
C28   C     C_R   0.391381 0.513327 0.094536 0.067225
C29   C     C_R   0.275103 0.522914 0.956374 0.476657
C30   C     C_R   0.724897 0.522915 0.043626 0.476652
Cu1   Cu    Cu3+1 0.500000 0.640660 0.500000 0.953722
Cu2   Cu    Cu3+1 0.500000 0.359340 0.500000 0.975374
H1    H     H_    0.690735 0.523825 0.775843 0.125609
H2    H     H_    0.309264 0.523823 0.224157 0.125610
H3    H     H_    0.195356 0.532073 0.086148 0.176851
H4    H     H_    0.804644 0.532074 0.913852 0.176852
H5    H     H_    0.418062 0.129685 0.371776 0.128032
H6    H     H_    0.583538 0.870310 0.627712 0.137518
H7    H     H_    0.581937 0.129683 0.628224 0.128037
H8    H     H_    0.416462 0.870311 0.372288 0.137515
N1    N     N_R   0.500000 0.852070 0.500000 -0.160031
N2    N     N_R   0.500000 0.147930 0.500000 -0.147912
O1    O     O_R   0.319640 0.618740 0.499990 -0.540584
O2    O     O_R   0.680360 0.381260 0.500010 -0.541911
O3    O     O_R   0.680360 0.618740 0.500010 -0.540575
O4    O     O_R   0.319640 0.381260 0.499990 -0.541909
O5    O     O_R   0.499970 0.618800 0.370260 -0.596263
O6    O     O_R   0.500030 0.381200 0.629740 -0.590416
O7    O     O_R   0.500030 0.618800 0.629740 -0.596262
O8    O     O_R   0.499970 0.381200 0.370260 -0.590414
C31   C     C_2   0.273740 0.441525 0.761879 0.447677
H9    H     H_    0.259323 0.477471 0.694124 0.007866
O9    O     O_2   0.202050 0.356642 0.792908 -0.506629
C32   C     C_2   0.726261 0.441532 0.238122 0.447684
H10   H     H_    0.740679 0.477485 0.305875 0.007863
O10   O     O_2   0.797948 0.356644 0.207096 -0.506632
O11   O     O_3   0.163435 0.548772 0.915834 -0.529607
C33   C     C_3   0.157444 0.692611 0.893093 0.068080
H11   H     H_    0.228616 0.720201 0.843309 0.122949
H12   H     H_    0.169254 0.760138 0.953253 0.137558
C34   C     C_3   0.033078 0.724278 0.851937 -0.791371
H13   H     H_    0.960593 0.708636 0.902333 0.249025
H14   H     H_    0.030176 0.834943 0.828770 0.200104
H15   H     H_    0.015783 0.653915 0.794143 0.239357
O12   O     O_3   0.836565 0.548770 0.084166 -0.529608
C35   C     C_3   0.842559 0.692610 0.106904 0.068082
H16   H     H_    0.771388 0.720204 0.156688 0.122952
H17   H     H_    0.830751 0.760135 0.046743 0.137558
C36   C     C_3   0.966926 0.724275 0.148060 -0.791372
H18   H     H_    0.039410 0.708627 0.097665 0.249027
H19   H     H_    0.969830 0.834941 0.171224 0.200098
H20   H     H_    0.984219 0.653914 0.205856 0.239356
O13   O     O_3   0.122401 0.245310 0.487308 -0.541450
C37   C     C_3   0.117794 0.202326 0.397019 0.107025
H21   H     H_    0.195128 0.250256 0.360142 0.137630
H22   H     H_    0.030542 0.231031 0.362420 0.162303
C38   C     C_3   0.129107 0.043721 0.392956 -0.756098
H23   H     H_    0.051958 0.995542 0.428993 0.283295
H24   H     H_    0.128105 0.007625 0.322548 0.187454
H25   H     H_    0.214611 0.009042 0.425753 0.259836
O14   O     O_3   0.877646 0.754765 0.480701 -0.543230
C39   C     C_3   0.872326 0.780091 0.387792 0.091027
H26   H     H_    0.826741 0.692141 0.351823 0.122647
H27   H     H_    0.965697 0.794093 0.360174 0.146975
C40   C     C_3   0.798504 0.912368 0.369472 -0.749091
H28   H     H_    0.796833 0.934188 0.296729 0.197385
H29   H     H_    0.703474 0.897696 0.392617 0.259067
H30   H     H_    0.839121 0.003692 0.404608 0.277664
O15   O     O_3   0.877601 0.245310 0.512700 -0.541453
C41   C     C_3   0.882199 0.202331 0.602990 0.107030
H31   H     H_    0.804868 0.250274 0.639864 0.137632
H32   H     H_    0.969452 0.231027 0.637589 0.162304
C42   C     C_3   0.870871 0.043728 0.607058 -0.756158
H33   H     H_    0.948030 0.995532 0.571044 0.283266
H34   H     H_    0.871835 0.007642 0.677467 0.187466
H35   H     H_    0.785381 0.009055 0.574241 0.259852
O16   O     O_3   0.122352 0.754767 0.519300 -0.543239
C43   C     C_3   0.127689 0.780088 0.612209 0.091022
H36   H     H_    0.173284 0.692138 0.648171 0.122658
H37   H     H_    0.034324 0.794085 0.639837 0.146966
C44   C     C_3   0.201510 0.912365 0.630523 -0.749096
H38   H     H_    0.160852 0.003700 0.595427 0.277638
H39   H     H_    0.203243 0.934147 0.703270 0.197375
H40   H     H_    0.296518 0.897723 0.607330 0.259101

loop_
_geom_bond_atom_site_label_1
_geom_bond_atom_site_label_2
_ccdc_geom_bond_type
C35   H17   S    
C4    H4    S    
C42   H33   S    
C34   H15   S    
O13   C37   S    
C15   O5    A    
C16   O6    A    
C6    C9    A    
O16   C43   S    
C41   H31   S    
C22   C32   S    
C38   H23   S    
C44   H38   S    
Cu1   O1    S    
C23   C29   A    
C3    C28   A    
C19   C21   A    
C24   C26   A    
C11   C14   A    
C1    O4    A    
C38   H25   S    
C35   C36   S    
C33   H12   S    
C7    O15   S    
C11   N2    A    
C36   H19   S    
C15   O8    A    
C11   H5    S    
C1    O1    A    
C2    O2    A    
C37   C38   S    
C26   C28   A    
C33   C34   S    
C40   H29   S    
C35   H16   S    
C44   H39   S    
C6    O14   S    
Cu1   O5    S    
C12   H6    S    
Cu2   O6    S    
C34   H13   S    
C17   H1    S    
Cu1   O7    S    
C13   N2    A    
O14   C39   S    
C38   H24   S    
C2    O3    A    
C15   C20   S    
C32   O10   D    
C37   H21   S    
C31   H9    S    
C17   C27   A    
C18   C28   A    
C16   O7    A    
C5    C7    A    
C6    C8    A    
C33   H11   S    
C40   H28   S    
C31   O9    D    
C36   H20   S    
C8    O16   S    
C12   N1    A    
C41   H32   S    
Cu1   Cu2   S    
C3    H3    S    
C34   H14   S    
Cu2   O2    S    
C18   H2    S    
Cu2   O8    S    
C37   H22   S    
C14   N1    A    
C8    C10   A    
C20   C22   A    
C43   H36   S    
C42   H35   S    
C39   H27   S    
C21   C23   A    
C22   C24   A    
C43   C44   S    
C21   C31   S    
C4    C27   A    
C41   C42   S    
C40   H30   S    
C7    C9    A    
C32   H10   S    
Cu1   N1    S    
Cu2   O4    S    
C1    C10   S    
C29   O11   S    
C25   C27   A    
C39   C40   S    
C43   H37   S    
C25   C26   A    
C5    C10   A    
O12   C35   S    
C3    C29   A    
O11   C33   S    
C16   C19   S    
C17   C19   A    
C18   C20   A    
C23   C25   A    
C5    O13   S    
C36   H18   S    
C24   C30   A    
C13   H7    S    
C30   O12   S    
C14   H8    S    
C12   C13   A    
C42   H34   S    
C39   H26   S    
Cu1   O3    S    
Cu2   N2    S    
C44   H40   S    
O15   C41   S    
C2    C9    S    
C4    C30   A    
