data_str_m2_o4_o9_f0_pcu.sym.48
_audit_creation_date              2012-10-26T19:00:11-0400
_audit_creation_method            fapswitch 2.2
_symmetry_space_group_name_H-M    P1
_symmetry_Int_Tables_number       1
_space_group_crystal_system       triclinic
_cell_length_a                    10.788518
_cell_length_b                    10.797139
_cell_length_c                    9.546688
_cell_angle_alpha                 90.133668
_cell_angle_beta                  90.177463
_cell_angle_gamma                 90.003529
_cell_volume                      1112.03881497

loop_
_atom_site_label
_atom_site_type_symbol
_atom_type_description
_atom_site_fract_x
_atom_site_fract_y
_atom_site_fract_z
_atom_type_partial_charge
C1    C     C_R   0.497846 0.262488 0.499652 0.540551
C2    C     C_R   0.850113 0.235400 0.916470 -0.098856
C3    C     C_R   0.781865 0.138936 0.856159 -0.114221
C4    C     C_R   0.262468 0.502820 0.499822 0.543533
C5    C     C_R   0.763315 0.135417 0.711265 -0.113039
C6    C     C_R   0.811113 0.229346 0.626645 -0.078448
C7    C     C_R   0.880012 0.326577 0.686403 0.069801
C8    C     C_R   0.428314 0.063397 0.600127 0.011469
C9    C     C_R   0.490216 0.129383 0.496024 0.005922
C10   C     C_R   0.538413 0.064541 0.380560 -0.179228
C11   C     C_R   0.540407 0.935612 0.381269 -0.172804
C12   C     C_R   0.238676 0.822667 0.115470 -0.108039
C13   C     C_R   0.494273 0.870770 0.497374 0.006183
C14   C     C_R   0.431399 0.936221 0.601155 0.008809
C15   C     C_3   0.436734 0.930340 0.757093 -0.271775
C16   C     C_R   0.500159 0.737571 0.499954 0.545299
C17   C     C_3   0.430974 0.071251 0.756355 -0.278826
C18   C     C_R   0.546137 0.598896 0.074223 0.108300
C19   C     C_R   0.442076 0.409165 0.073951 -0.005225
C20   C     C_R   0.441946 0.409248 0.925102 -0.006185
C21   C     C_R   0.546553 0.598755 0.926979 0.162343
C22   C     C_3   0.675486 0.649354 0.923653 0.236193
C23   C     C_R   0.932830 0.569546 0.403283 -0.153057
C24   C     C_3   0.674358 0.649605 0.082552 -0.212365
C25   C     C_R   0.737583 0.496582 0.500119 0.550023
C26   C     C_R   0.239455 0.848779 0.258854 -0.101255
C27   C     C_R   0.182377 0.767799 0.352712 -0.072112
C28   C     C_R   0.122260 0.660998 0.302996 0.047879
C29   C     C_R   0.120225 0.636025 0.158589 -0.076413
C30   C     C_R   0.179265 0.716289 0.065292 -0.107118
C31   C     C_R   0.871566 0.493910 0.499665 0.015643
C32   C     C_R   0.939005 0.420592 0.595434 -0.006587
C33   C     C_R   0.067537 0.428915 0.596105 -0.153807
C34   C     C_R   0.128587 0.504518 0.499821 0.001904
C35   C     C_R   0.061334 0.575558 0.402146 -0.033609
C36   C     C_R   0.900495 0.328068 0.831868 -0.026145
Cu1   Cu    Cu3+1 0.499990 0.499980 0.640670 0.990639
Cu2   Cu    Cu3+1 0.500010 0.500020 0.359330 0.937765
F1    F     F_    0.760459 0.565570 0.871458 -0.631295
H1    H     H_    0.283609 0.885303 0.043449 0.095855
H2    H     H_    0.515805 0.116199 0.798318 0.150611
H3    H     H_    0.397036 0.334410 0.129198 0.112432
H4    H     H_    0.284083 0.931951 0.297208 0.117856
H5    H     H_    0.396501 0.334832 0.869147 0.102895
H6    H     H_    0.681811 0.742933 0.876148 0.089591
H7    H     H_    0.741280 0.583240 0.129438 0.178619
H8    H     H_    0.676690 0.744313 0.128025 0.056160
H9    H     H_    0.184329 0.788541 0.463764 0.099020
H10   H     H_    0.074197 0.553973 0.118727 0.106699
H11   H     H_    0.178647 0.696256 0.954147 0.114172
H12   H     H_    0.743981 0.066504 0.921524 0.095781
H13   H     H_    0.880282 0.626913 0.331361 0.117229
H14   H     H_    0.120696 0.371495 0.667539 0.111217
H15   H     H_    0.955177 0.401072 0.879602 0.135839
H16   H     H_    0.865116 0.237670 0.028605 0.104578
H17   H     H_    0.712262 0.059555 0.664432 0.117020
H18   H     H_    0.796760 0.224869 0.514393 0.091560
H19   H     H_    0.580590 0.113022 0.293639 0.130281
H20   H     H_    0.582975 0.887315 0.294402 0.126745
H21   H     H_    0.352598 0.886249 0.801487 0.129726
H22   H     H_    0.526431 0.893699 0.796697 0.123070
H23   H     H_    0.342622 0.107999 0.799271 0.121283
N1    N     N_R   0.500790 0.500930 0.147930 -0.225498
N2    N     N_R   0.500790 0.500890 0.852020 -0.203697
O1    O     O_R   0.500000 0.319640 0.618810 -0.504290
O2    O     O_R   0.500010 0.319680 0.381230 -0.518607
O3    O     O_R   0.319640 0.499990 0.618790 -0.518895
O4    O     O_R   0.319650 0.500030 0.381210 -0.490557
O5    O     O_R   0.499990 0.680320 0.618770 -0.510383
O6    O     O_R   0.500000 0.680360 0.381190 -0.501149
O7    O     O_R   0.680350 0.499970 0.618790 -0.409764
O8    O     O_R   0.680360 0.500010 0.381210 -0.527243

loop_
_geom_bond_atom_site_label_1
_geom_bond_atom_site_label_2
_ccdc_geom_bond_type
C27   H9    S    
C20   N2    A    
C4    O3    A    
C1    O1    A    
Cu2   O6    S    
C12   H1    S    
C29   C30   A    
C25   O7    A    
Cu1   O5    S    
C17   H23   S    
C18   C21   A    
C7    C36   A    
C5    H17   S    
C8    C17   S    
C19   H3    S    
C33   C34   A    
C24   H7    S    
C32   C33   A    
Cu1   N2    S    
C19   C20   A    
C2    C3    A    
C15   H22   S    
C1    C9    S    
C25   O8    A    
C29   H10   S    
C21   C22   S    
C33   H14   S    
C11   C13   A    
C6    H18   S    
C23   H13   S    
C6    C7    A    
C11   H20   S    
C22   F1    S    
Cu1   O3    S    
C22   C24   S    
C28   C29   A    
C10   H19   S    
Cu1   Cu2   S    
Cu2   O4    S    
C26   H4    S    
C1    O2    A    
C23   C35   A    
C2    H16   S    
Cu1   O7    S    
C4    C34   S    
C30   H11   S    
C5    C6    A    
C34   C35   A    
C31   C32   A    
Cu2   O8    S    
C18   N1    A    
C17   H2    S    
C36   H15   S    
C10   C11   A    
C2    C36   A    
C23   C31   A    
C3    C5    A    
C22   H6    S    
C16   O6    A    
C18   C24   S    
C4    O4    A    
Cu2   N1    S    
C9    C10   A    
C13   C16   S    
C19   N1    A    
C27   C28   A    
C15   C17   S    
C3    H12   S    
C14   C15   S    
C26   C27   A    
C8    C14   A    
C7    C32   S    
C20   H5    S    
C13   C14   A    
C24   H8    S    
C12   C30   A    
C25   C31   S    
C15   H21   S    
C16   O5    A    
Cu2   O2    S    
C28   C35   S    
C12   C26   A    
C8    C9    A    
C21   N2    A    
Cu1   O1    S    
