data_str_m2_o5_o26_f0_pcu.sym.39
_audit_creation_date              2012-10-26T20:14:30-0400
_audit_creation_method            fapswitch 2.2
_symmetry_space_group_name_H-M    P1
_symmetry_Int_Tables_number       1
_space_group_crystal_system       triclinic
_cell_length_a                    7.774961
_cell_length_b                    9.092108
_cell_length_c                    17.201048
_cell_angle_alpha                 90.000075
_cell_angle_beta                  85.735127
_cell_angle_gamma                 90.0
_cell_volume                      1212.58850246

loop_
_atom_site_label
_atom_site_type_symbol
_atom_type_description
_atom_site_fract_x
_atom_site_fract_y
_atom_site_fract_z
_atom_type_partial_charge
C1    C     C_R   0.500000 0.780010 0.500000 0.568491
C2    C     C_R   0.414282 0.375725 0.235273 -0.184474
C3    C     C_R   0.572478 0.334500 0.842974 0.205843
C4    C     C_R   0.427520 0.334501 0.157025 0.205854
C5    C     C_R   0.442369 0.400280 0.893863 -0.015831
C6    C     C_R   0.557631 0.400279 0.106137 -0.015834
C7    C     C_R   0.318586 0.491386 0.862955 -0.101591
C8    C     C_R   0.681416 0.491383 0.137045 -0.101593
C9    C     C_R   0.324465 0.522109 0.783054 0.269680
C10   C     C_R   0.675537 0.522106 0.216946 0.269679
C11   C     C_2   0.430488 0.384864 0.979356 -0.028751
C12   C     C_R   0.500000 0.219991 0.500000 0.546295
C13   C     C_2   0.569512 0.384862 0.020644 -0.028750
C14   C     C_3   0.959401 0.547348 0.240142 -0.050573
C15   C     C_3   0.040604 0.547350 0.759854 -0.050571
C16   C     C_1   0.500000 0.934639 0.500000 -0.021066
C17   C     C_1   0.500000 0.065373 0.500000 -0.025758
C18   C     C_R   0.477340 0.496879 0.650638 0.572612
C19   C     C_R   0.522660 0.496879 0.349362 0.572612
C20   C     C_R   0.464295 0.469508 0.734591 -0.009961
C21   C     C_R   0.535705 0.469508 0.265409 -0.009964
C22   C     C_R   0.585716 0.375724 0.764727 -0.184483
Cu1   Cu    Cu3+1 0.330920 0.500000 0.500000 1.053256
Cu2   Cu    Cu3+1 0.669080 0.500000 0.500000 1.053258
H1    H     H_    0.218716 0.541803 0.901437 0.141991
H2    H     H_    0.047985 0.612008 0.274547 0.161429
H3    H     H_    0.014724 0.546831 0.178689 0.143496
H4    H     H_    0.044946 0.433514 0.735744 0.146152
H5    H     H_    0.952018 0.612016 0.725453 0.161433
H6    H     H_    0.985280 0.546819 0.821307 0.143496
H7    H     H_    0.781286 0.541798 0.098563 0.141990
H8    H     H_    0.687314 0.328516 0.725934 0.166226
H9    H     H_    0.312683 0.328519 0.274066 0.166233
H10   H     H_    0.695901 0.397798 0.990453 0.176819
H11   H     H_    0.304099 0.397803 0.009547 0.176817
H12   H     H_    0.361401 0.034461 0.215887 0.348218
H13   H     H_    0.638579 0.034490 0.784099 0.348204
H14   H     H_    0.955063 0.433507 0.264245 0.146157
N1    N     N_1   0.923170 0.500000 0.500010 -0.080551
N2    N     N_1   0.076830 0.500000 0.499990 -0.080552
O1    O     O_R   0.357240 0.711600 0.500000 -0.488024
O2    O     O_2   0.366783 0.105061 0.061827 -0.194361
O3    O     O_3   0.247688 0.076491 0.205698 -0.491361
O4    O     O_2   0.879904 0.256625 0.890770 -0.269439
O5    O     O_2   0.633211 0.105060 0.938173 -0.194350
O6    O     O_3   0.752302 0.076486 0.794302 -0.491347
O7    O     O_3   0.795532 0.615109 0.246782 -0.539798
O8    O     O_3   0.204471 0.615113 0.753218 -0.539798
O9    O     O_R   0.642760 0.288400 0.500000 -0.501042
O10   O     O_R   0.642760 0.711600 0.500000 -0.488024
O11   O     O_R   0.357240 0.288400 0.500000 -0.501041
O12   O     O_R   0.340660 0.500000 0.613590 -0.466921
O13   O     O_R   0.659340 0.500000 0.386410 -0.466916
O14   O     O_R   0.626230 0.500000 0.613600 -0.527328
O15   O     O_R   0.373770 0.500000 0.386400 -0.527329
O16   O     O_2   0.120093 0.256632 0.109228 -0.269442
S1    S     S_3+6 0.288341 0.191485 0.129944 0.030288
S2    S     S_3+6 0.711654 0.191481 0.870055 0.030295

loop_
_geom_bond_atom_site_label_1
_geom_bond_atom_site_label_2
_ccdc_geom_bond_type
C12   C17   S    
C4    S1    S    
C2    C4    A    
Cu1   Cu2   S    
Cu1   O15   S    
C14   O7    S    
C14   H3    S    
C14   H14   S    
C5    C7    A    
C1    O10   A    
C9    C20   A    
Cu1   O11   S    
Cu1   O1    S    
C12   O11   A    
C19   O13   A    
C2    C21   A    
C11   H11   S    
C12   O9    A    
C15   H4    S    
C18   O12   A    
C13   H10   S    
C10   C21   A    
C1    C16   S    
O6    S2    S    
C6    C13   S    
C11   C13   D    
Cu1   O12   S    
C22   H8    S    
C15   O8    S    
C9    O8    S    
O2    S1    D    
C4    C6    A    
C19   C21   S    
C20   C22   A    
C15   H5    S    
C18   C20   S    
C5    C11   S    
Cu2   O10   S    
O5    S2    D    
H12   O3    S    
O3    S1    S    
Cu2   O14   S    
Cu1   N2    S    
N1    N2    T    
C3    S2    S    
C10   O7    S    
Cu2   N1    S    
O16   S1    D    
C2    H9    S    
C15   H6    S    
C8    C10   A    
C19   O15   A    
Cu2   O9    S    
C7    C9    A    
C18   O14   A    
C3    C22   A    
C6    C8    A    
H13   O6    S    
C8    H7    S    
C14   H2    S    
C1    O1    A    
Cu2   O13   S    
O4    S2    D    
C16   C17   T    
C3    C5    A    
C7    H1    S    
