data_str_m2_o1_o10_f0_pcu.sym.103
_audit_creation_date              2013-03-05T16:03:40-0500
_audit_creation_method            fapswitch 2.2
_symmetry_space_group_name_H-M    P1
_symmetry_Int_Tables_number       1
_space_group_crystal_system       triclinic
_cell_length_a                    8.804887
_cell_length_b                    10.865729
_cell_length_c                    9.567892
_cell_angle_alpha                 91.11266
_cell_angle_beta                  98.339545
_cell_angle_gamma                 90.550644
_cell_volume                      905.453264106

loop_
_atom_site_label
_atom_site_type_symbol
_atom_site_description
_atom_site_fract_x
_atom_site_fract_y
_atom_site_fract_z
_atom_type_partial_charge
O1    O     O_R   0.499990 0.319660 0.618740 -0.593521
O2    O     O_R   0.500010 0.680340 0.381260 -0.593520
O3    O     O_R   0.499990 0.319630 0.381170 -0.542683
O4    O     O_R   0.500010 0.680370 0.618830 -0.542687
C1    C     C_R   0.501683 0.262331 0.498717 0.794866
C2    C     C_R   0.498317 0.737669 0.501283 0.794862
O5    O     O_R   0.274840 0.500010 0.591370 -0.599726
O6    O     O_R   0.725160 0.499990 0.408630 -0.599727
O7    O     O_R   0.274830 0.499980 0.353800 -0.533261
O8    O     O_R   0.725170 0.500020 0.646200 -0.533260
C3    C     C_R   0.204358 0.497473 0.464197 0.830920
C4    C     C_R   0.795642 0.502527 0.535803 0.830917
Cu1   Cu    Cu3+1 0.500000 0.500020 0.640660 1.030001
Cu2   Cu    Cu3+1 0.500000 0.499980 0.359340 1.030000
N1    N     N_R   0.500040 0.500030 0.852080 -0.247234
N2    N     N_R   0.499960 0.499970 0.147920 -0.247231
C5    C     C_2   0.040296 0.478905 0.448997 -0.283178
C6    C     C_2   0.959704 0.521096 0.551002 -0.283172
C7    C     C_R   0.545297 0.058884 0.382566 -0.024289
C8    C     C_R   0.454702 0.941116 0.617433 -0.024289
C9    C     C_R   0.542804 0.931616 0.387508 -0.205672
C10   C     C_R   0.457196 0.068384 0.612492 -0.205672
H1    H     H_    0.577800 0.879035 0.300252 0.168694
H2    H     H_    0.422200 0.120965 0.699747 0.168693
C11   C     C_R   0.498053 0.871689 0.503590 -0.069287
C12   C     C_R   0.501947 0.128311 0.496410 -0.069287
C13   C     C_R   0.385068 0.441537 0.055518 0.451372
C14   C     C_R   0.614931 0.558464 0.944482 0.451378
C15   C     C_R   0.386014 0.442347 0.907671 -0.120229
C16   C     C_R   0.613986 0.557653 0.092328 -0.120230
H3    H     H_    0.295331 0.395409 0.837597 0.178376
H4    H     H_    0.704669 0.604591 0.162403 0.178372
C17   C     C_1   0.974168 0.395605 0.335300 0.382702
N3    N     N_1   0.920822 0.328728 0.245514 -0.172241
C18   C     C_1   0.025831 0.604397 0.664697 0.382704
N4    N     N_1   0.079177 0.671276 0.754480 -0.172245
C19   C     C_1   0.595164 0.113677 0.260120 0.332522
N5    N     N_1   0.634576 0.156942 0.161567 -0.224575
C20   C     C_1   0.404835 0.886323 0.739879 0.332526
N6    N     N_1   0.365424 0.843058 0.838433 -0.224573
N7    N     N_R   0.259599 0.380274 0.104849 0.129274
O9    O     O_R   0.120707 0.407920 0.049528 -0.329822
O10   O     O_R   0.282047 0.275567 0.167388 -0.353009
N8    N     N_R   0.740397 0.619729 0.895149 0.129275
O11   O     O_R   0.879290 0.592073 0.950454 -0.329819
O12   O     O_R   0.717949 0.724444 0.832628 -0.353014

loop_
_geom_bond_atom_site_label_1
_geom_bond_atom_site_label_2
_geom_bond_distance
_ccdc_geom_bond_type
O5    C3    1.282873 A    
O7    Cu2   1.975606 S    
C19   N5    1.157401 T    
C13   C15   1.416004 A    
N7    O10   1.299216 A    
C6    C18   1.452419 S    
C13   N7    1.426775 S    
C18   N4    1.157062 T    
O6    C4    1.282874 A    
N2    C13   1.383662 A    
C14   C16   1.416004 A    
C5    C6    1.362348 D    
C15   H3    1.082023 S    
Cu1   Cu2   2.691631 S    
C16   H4    1.082023 S    
O7    C3    1.300907 A    
N1    C14   1.383657 A    
O2    C2    1.297832 A    
O3    Cu2   1.974763 S    
C5    C17   1.452424 S    
O1    C1    1.297832 A    
O8    C4    1.300909 A    
C7    C9    1.384661 A    
N8    O12   1.299213 A    
N1    C15   1.356278 A    
Cu2   N2    2.022790 S    
Cu1   N1    2.022792 S    
C9    H1    1.085276 S    
C10   C12   1.401038 A    
O2    Cu2   1.966879 S    
C10   H2    1.085277 S    
C2    C11   1.455995 S    
O1    Cu1   1.966877 S    
C8    C11   1.412605 A    
N2    C16   1.356281 A    
C1    C12   1.455994 S    
C20   N6    1.157400 T    
O5    Cu1   1.970161 S    
C17   N3    1.157066 T    
N8    O11   1.300545 A    
O4    C2    1.294314 A    
N7    O9    1.300549 A    
C4    C6    1.442535 S    
O4    Cu1   1.974764 S    
C7    C12   1.412606 A    
C8    C20   1.446046 S    
C9    C11   1.401038 A    
C3    C5    1.442535 S    
O6    Cu2   1.970159 S    
C7    C19   1.446045 S    
C14   N8    1.426772 S    
C8    C10   1.384660 A    
O3    C1    1.294313 A    
O8    Cu1   1.975604 S    
