data_str_m2_o1_o9_f0_pcu.sym.69
_audit_creation_date              2012-12-10T18:05:46-0500
_audit_creation_method            fapswitch 2.2
_symmetry_space_group_name_H-M    P1
_symmetry_Int_Tables_number       1
_space_group_crystal_system       triclinic
_cell_length_a                    10.828942
_cell_length_b                    10.825069
_cell_length_c                    9.498881
_cell_angle_alpha                 90.055886
_cell_angle_beta                  90.147677
_cell_angle_gamma                 90.498771
_cell_volume                      1113.45080436

loop_
_atom_site_label
_atom_site_type_symbol
_atom_type_description
_atom_site_fract_x
_atom_site_fract_y
_atom_site_fract_z
_atom_type_partial_charge
C1    C     C_R   0.499893 0.262025 0.499922 0.815141
C2    C     C_R   0.489312 0.063926 0.627322 -0.161633
C3    C     C_R   0.500135 0.871787 0.500087 0.020653
C4    C     C_R   0.499873 0.128213 0.499914 0.020660
C5    C     C_R   0.428198 0.418004 0.074148 -0.006183
C6    C     C_R   0.571798 0.581999 0.925852 -0.006182
C7    C     C_R   0.428232 0.418030 0.925181 -0.028920
C8    C     C_R   0.571765 0.581973 0.074819 -0.028908
C9    C     C_R   0.262218 0.502546 0.499576 0.814978
C10   C     C_R   0.737782 0.497446 0.500424 0.815025
C11   C     C_R   0.247492 0.778972 0.157246 -0.112916
C12   C     C_R   0.500109 0.737975 0.500078 0.815135
C13   C     C_R   0.752486 0.221031 0.842777 -0.112913
C14   C     C_R   0.186662 0.730476 0.275246 0.455398
C15   C     C_R   0.813331 0.269512 0.724771 0.455402
C16   C     C_R   0.121861 0.615995 0.262653 0.027414
C17   C     C_R   0.878141 0.383985 0.737353 0.027391
C18   C     C_R   0.117726 0.555859 0.131506 -0.209070
C19   C     C_R   0.882284 0.444120 0.868502 -0.209077
C20   C     C_R   0.177881 0.606513 0.014979 -0.142626
C21   C     C_R   0.822128 0.393474 0.985039 -0.142611
C22   C     C_R   0.243358 0.717411 0.028038 -0.190807
C23   C     C_R   0.871644 0.495555 0.501344 -0.083223
C24   C     C_R   0.756630 0.282589 0.971986 -0.190794
C25   C     C_R   0.933546 0.548543 0.386923 -0.240553
C26   C     C_R   0.066456 0.451431 0.613071 -0.240575
C27   C     C_R   0.128357 0.504424 0.498654 -0.083280
C28   C     C_R   0.938485 0.445275 0.615402 -0.006358
C29   C     C_R   0.061516 0.554699 0.384595 -0.006360
C30   C     C_R   0.510479 0.063831 0.372566 -0.176857
C31   C     C_R   0.489532 0.936168 0.627434 -0.176859
C32   C     C_R   0.510703 0.936074 0.372679 -0.161647
Cu1   Cu    Cu3+1 0.500000 0.500020 0.640660 0.949505
Cu2   Cu    Cu3+1 0.500000 0.499980 0.359340 0.949504
H1    H     H_    0.290899 0.755854 0.937812 0.146567
H2    H     H_    0.825056 0.441057 0.085274 0.147066
H3    H     H_    0.882011 0.588580 0.300407 0.148665
H4    H     H_    0.117993 0.411392 0.699584 0.148669
H5    H     H_    0.519047 0.111901 0.273021 0.136235
H6    H     H_    0.480965 0.888098 0.726980 0.136236
H7    H     H_    0.519578 0.887914 0.273232 0.133050
H8    H     H_    0.480445 0.112085 0.726769 0.133046
H9    H     H_    0.370368 0.352692 0.130140 0.117728
H10   H     H_    0.629627 0.647312 0.869859 0.117728
H11   H     H_    0.138544 0.759958 0.470294 0.318334
H12   H     H_    0.709080 0.244156 0.062219 0.146563
H13   H     H_    0.861545 0.239954 0.529767 0.318346
H14   H     H_    0.370476 0.352680 0.868652 0.110515
H15   H     H_    0.629519 0.647324 0.131348 0.110516
H16   H     H_    0.297805 0.865531 0.165648 0.136445
H17   H     H_    0.702157 0.134483 0.834380 0.136432
H18   H     H_    0.069610 0.468262 0.120270 0.147167
H19   H     H_    0.930411 0.531711 0.879733 0.147174
H20   H     H_    0.174967 0.558928 0.914750 0.147071
N1    N     N_R   0.500030 0.500030 0.852070 -0.155891
N2    N     N_R   0.499970 0.499970 0.147930 -0.155892
O1    O     O_R   0.499990 0.319660 0.618740 -0.587618
O2    O     O_3   0.806630 0.202406 0.601172 -0.757231
O3    O     O_R   0.500010 0.680340 0.381260 -0.587617
O4    O     O_R   0.499990 0.319630 0.381170 -0.598725
O5    O     O_R   0.500010 0.680370 0.618830 -0.598724
O6    O     O_R   0.319650 0.500020 0.618780 -0.594685
O7    O     O_R   0.680350 0.499980 0.381220 -0.594690
O8    O     O_R   0.319640 0.500000 0.381210 -0.571554
O9    O     O_R   0.680360 0.500000 0.618790 -0.571557
O10   O     O_3   0.193368 0.797578 0.398851 -0.757221

loop_
_geom_bond_atom_site_label_1
_geom_bond_atom_site_label_2
_ccdc_geom_bond_type
Cu1   N1    S    
C2    C4    A    
C32   H7    S    
Cu2   N2    S    
C22   H1    S    
C1    O1    A    
C10   C23   S    
C27   C29   A    
C9    O8    A    
C11   C22   A    
C26   C28   A    
C10   O7    A    
C7    N1    A    
C6    N1    A    
C3    C31   A    
C1    C4    S    
C24   H12   S    
C7    H14   S    
C19   H19   S    
Cu2   O8    S    
Cu1   Cu2   S    
C5    H9    S    
C18   H18   S    
Cu1   O1    S    
C21   H2    S    
C6    H10   S    
C23   C28   A    
H13   O2    S    
Cu2   O4    S    
C12   O5    A    
C12   O3    A    
C8    N2    A    
C26   C27   A    
C3    C32   A    
C2    H8    S    
C15   C17   A    
Cu1   O5    S    
Cu2   O7    S    
C17   C19   A    
C20   C22   A    
C30   H5    S    
Cu1   O6    S    
C18   C20   A    
C13   C15   A    
C14   O10   S    
Cu2   O3    S    
C15   O2    S    
C14   C16   A    
C1    O4    A    
Cu1   O9    S    
C9    O6    A    
C30   C32   A    
H11   O10   S    
C23   C25   A    
C31   H6    S    
C9    C27   S    
C25   C29   A    
C20   H20   S    
C21   C24   A    
C11   C14   A    
C5    C7    A    
C11   H16   S    
C26   H4    S    
C6    C8    A    
C3    C12   S    
C5    N2    A    
C19   C21   A    
C16   C29   S    
C13   H17   S    
C17   C28   S    
C8    H15   S    
C16   C18   A    
C4    C30   A    
C13   C24   A    
C25   H3    S    
C2    C31   A    
C10   O9    A    
