data_str_m2_o1_o9_f0_pcu.sym.168
_audit_creation_date              2012-12-10T18:05:43-0500
_audit_creation_method            fapswitch 2.2
_symmetry_space_group_name_H-M    P1
_symmetry_Int_Tables_number       1
_space_group_crystal_system       triclinic
_cell_length_a                    10.789179
_cell_length_b                    10.80146
_cell_length_c                    9.522679
_cell_angle_alpha                 90.096881
_cell_angle_beta                  89.853236
_cell_angle_gamma                 88.978578
_cell_volume                      1109.58074177

loop_
_atom_site_label
_atom_site_type_symbol
_atom_type_description
_atom_site_fract_x
_atom_site_fract_y
_atom_site_fract_z
_atom_type_partial_charge
C1    C     C_R   0.499394 0.262135 0.499838 0.794032
C2    C     C_R   0.500612 0.737865 0.500162 0.794039
C3    C     C_R   0.871409 0.498847 0.499660 -0.133388
C4    C     C_R   0.128595 0.501154 0.500339 -0.133383
C5    C     C_R   0.937918 0.393264 0.546476 -0.048818
C6    C     C_R   0.062087 0.606745 0.453538 -0.048809
C7    C     C_R   0.531748 0.063270 0.377406 -0.207791
C8    C     C_R   0.468277 0.936730 0.622598 -0.207792
C9    C     C_R   0.533629 0.935201 0.378014 -0.193770
C10   C     C_R   0.466393 0.064798 0.621988 -0.193787
C11   C     C_R   0.501469 0.871667 0.500465 0.004311
C12   C     C_R   0.498549 0.128332 0.499537 0.004301
C13   C     C_R   0.423255 0.424248 0.074458 -0.034137
C14   C     C_R   0.576746 0.575752 0.925542 -0.034153
C15   C     C_R   0.423354 0.424221 0.925670 -0.024365
C16   C     C_R   0.576646 0.575778 0.074330 -0.024362
C17   C     C_R   0.262586 0.502209 0.500120 0.841771
C18   C     C_R   0.737415 0.497789 0.499880 0.841758
C19   C     C_R   0.188808 0.930721 0.456939 -0.130124
C20   C     C_R   0.811166 0.069299 0.543327 -0.130089
C21   C     C_R   0.138540 0.819471 0.502792 -0.172785
C22   C     C_R   0.861472 0.180504 0.497389 -0.172843
C23   C     C_R   0.128420 0.719379 0.409540 0.103610
C24   C     C_R   0.871580 0.280659 0.590554 0.103605
C25   C     C_R   0.171715 0.730806 0.271133 -0.098803
C26   C     C_R   0.828247 0.269340 0.728957 -0.098718
C27   C     C_R   0.223324 0.841828 0.226199 -0.148074
C28   C     C_R   0.776596 0.158366 0.773972 -0.148045
C29   C     C_R   0.230489 0.942168 0.318567 -0.102125
C30   C     C_R   0.769438 0.057962 0.681693 -0.102179
C31   C     C_R   0.931908 0.605860 0.452877 0.136873
C32   C     C_R   0.068096 0.394139 0.547121 0.136872
Cu1   Cu    Cu3+1 0.500000 0.500020 0.640660 0.936225
Cu2   Cu    Cu3+1 0.500000 0.499980 0.359340 0.936227
H1    H     H_    0.268973 0.028582 0.283197 0.128275
H2    H     H_    0.730917 0.971585 0.717129 0.128272
H3    H     H_    0.362148 0.363291 0.869736 0.110339
H4    H     H_    0.637852 0.636708 0.130263 0.110338
H5    H     H_    0.195226 0.008081 0.528598 0.140243
H6    H     H_    0.804751 0.991890 0.471736 0.140263
H7    H     H_    0.104503 0.812229 0.609506 0.134324
H8    H     H_    0.895544 0.187666 0.390682 0.134350
H9    H     H_    0.163492 0.654655 0.197795 0.129114
H10   H     H_    0.836463 0.345546 0.802227 0.129109
H11   H     H_    0.256271 0.850625 0.119298 0.122042
H12   H     H_    0.743606 0.149657 0.880864 0.122044
H13   H     H_    0.557676 0.111141 0.282182 0.146489
H14   H     H_    0.442352 0.888859 0.717823 0.146490
H15   H     H_    0.560223 0.886098 0.283017 0.142850
H16   H     H_    0.439798 0.113901 0.716986 0.142851
H17   H     H_    0.361847 0.363454 0.130536 0.118150
H18   H     H_    0.638154 0.636545 0.869464 0.118148
N1    N     N_R   0.500030 0.500030 0.852070 -0.156420
N2    N     N_R   0.499970 0.499970 0.147930 -0.156421
O1    O     O_R   0.499990 0.319660 0.618740 -0.582446
O2    O     O_R   0.500010 0.680340 0.381260 -0.582452
O3    O     O_R   0.499990 0.319630 0.381170 -0.594715
O4    O     O_R   0.500010 0.680370 0.618830 -0.594709
O5    O     O_R   0.319650 0.500020 0.618780 -0.581948
O6    O     O_R   0.680350 0.499980 0.381220 -0.581948
O7    O     O_R   0.319640 0.500000 0.381210 -0.586472
O8    O     O_R   0.680360 0.500000 0.618790 -0.586483
C33   C     C_3   0.855721 0.717884 0.404825 -0.870064
H19   H     H_    0.911639 0.798141 0.373427 0.235781
H20   H     H_    0.799482 0.693068 0.312001 0.232276
H21   H     H_    0.793028 0.749282 0.490964 0.209534
C34   C     C_3   0.144280 0.282112 0.595176 -0.870070
H22   H     H_    0.088363 0.201851 0.626564 0.235770
H23   H     H_    0.206979 0.250717 0.509042 0.209533
H24   H     H_    0.200510 0.306925 0.688008 0.232277

loop_
_geom_bond_atom_site_label_1
_geom_bond_atom_site_label_2
_ccdc_geom_bond_type
Cu1   O1    S    
Cu2   O3    S    
C3    C31   A    
C16   H4    S    
C8    H14   S    
C14   H18   S    
Cu2   O2    S    
Cu1   O4    S    
C14   C16   A    
C1    O3    A    
C27   C29   A    
C29   H1    S    
C26   C28   A    
C30   H2    S    
C5    C32   A    
C32   C34   S    
C25   H9    S    
C33   H20   S    
Cu1   Cu2   S    
C1    O1    A    
C33   H21   S    
C26   H10   S    
Cu1   O5    S    
C10   H16   S    
C2    O2    A    
Cu2   O6    S    
C9    C11   A    
Cu2   N2    S    
C28   H12   S    
C14   N1    A    
C22   H8    S    
C1    C12   S    
C19   H5    S    
C17   O5    A    
C8    C11   A    
C21   H7    S    
C2    C11   S    
C15   N1    A    
C22   C24   A    
C28   C30   A    
C19   C21   A    
C20   C22   A    
C6    C31   A    
C10   C12   A    
C13   C15   A    
C21   C23   A    
Cu1   N1    S    
C2    O4    A    
C20   H6    S    
C16   N2    A    
C7    C12   A    
C8    C10   A    
C4    C6    A    
C25   C27   A    
C27   H11   S    
C6    C23   S    
C34   H23   S    
C33   H19   S    
C19   C29   A    
C31   C33   S    
C23   C25   A    
C9    H15   S    
C3    C18   S    
C4    C17   S    
C13   N2    A    
C15   H3    S    
C18   O6    A    
C7    C9    A    
C4    C32   A    
C5    C24   S    
C20   C30   A    
C34   H24   S    
C17   O7    A    
C13   H17   S    
Cu2   O7    S    
C18   O8    A    
C34   H22   S    
C24   C26   A    
Cu1   O8    S    
C3    C5    A    
C7    H13   S    
