data_str_m2_o4_o14_f0_pcu.sym.21
_audit_creation_date              2012-10-26T19:35:12-0400
_audit_creation_method            fapswitch 2.2
_symmetry_space_group_name_H-M    P1
_symmetry_Int_Tables_number       1
_space_group_crystal_system       triclinic
_cell_length_a                    10.77871
_cell_length_b                    10.796002
_cell_length_c                    9.537309
_cell_angle_alpha                 89.818213
_cell_angle_beta                  90.195965
_cell_angle_gamma                 89.802574
_cell_volume                      1109.8090877

loop_
_atom_site_label
_atom_site_type_symbol
_atom_type_description
_atom_site_fract_x
_atom_site_fract_y
_atom_site_fract_z
_atom_type_partial_charge
C1    C     C_R   0.504128 0.262195 0.500278 0.532056
C2    C     C_R   0.531232 0.935705 0.372016 -0.174419
C3    C     C_R   0.520140 0.870338 0.499026 0.000594
C4    C     C_R   0.262505 0.501398 0.499720 0.537907
C5    C     C_R   0.530107 0.935292 0.624576 0.002422
C6    C     C_3   0.456320 0.927338 0.756630 -0.239983
C7    C     C_3   0.462573 0.068623 0.760536 -0.123653
C8    C     C_R   0.569303 0.584305 0.073594 0.153747
C9    C     C_R   0.421783 0.426041 0.074447 -0.016864
C10   C     C_R   0.421045 0.426809 0.925476 -0.027135
C11   C     C_R   0.569375 0.584182 0.926217 0.154984
C12   C     C_R   0.067221 0.392398 0.556510 0.014483
C13   C     C_3   0.706676 0.599558 0.920656 -0.277254
C14   C     C_3   0.706721 0.599622 0.079748 -0.280653
C15   C     C_R   0.504019 0.737617 0.499745 0.545482
C16   C     C_R   0.737201 0.496347 0.500223 0.538338
C17   C     C_R   0.133360 0.288549 0.609395 -0.113795
C18   C     C_R   0.070817 0.186530 0.663971 -0.133189
C19   C     C_R   0.941900 0.184895 0.665581 -0.123754
C20   C     C_R   0.874614 0.285450 0.613148 -0.110290
C21   C     C_R   0.936241 0.390260 0.558096 0.015002
C22   C     C_3   0.120960 0.712409 0.381017 -0.251783
C23   C     C_R   0.128429 0.496996 0.499198 0.012165
C24   C     C_3   0.161274 0.800396 0.498503 -0.299202
C25   C     C_3   0.201753 0.925339 0.439163 -0.452041
C26   C     C_3   0.536958 0.125768 0.883436 -0.245734
C27   C     C_3   0.661753 0.062734 0.918911 -0.296066
C28   C     C_3   0.743854 0.147524 0.007035 -0.453247
C29   C     C_R   0.060537 0.596758 0.440196 -0.030706
C30   C     C_R   0.931949 0.591575 0.440693 -0.146879
C31   C     C_R   0.870614 0.491562 0.500554 -0.014126
C32   C     C_R   0.533618 0.062679 0.625629 0.023762
C33   C     C_R   0.520914 0.129132 0.500201 -0.008389
C34   C     C_R   0.530230 0.064776 0.372531 -0.168913
Cu1   Cu    Cu3+1 0.499990 0.499980 0.640670 0.908115
Cu2   Cu    Cu3+1 0.500010 0.500020 0.359330 0.915345
H1    H     H_    0.506902 0.877642 0.841265 0.137661
H2    H     H_    0.894060 0.104753 0.706343 0.106381
H3    H     H_    0.774473 0.279405 0.614496 0.130979
H4    H     H_    0.878346 0.668064 0.397487 0.111899
H5    H     H_    0.529205 0.113244 0.272983 0.132477
H6    H     H_    0.531788 0.888091 0.272206 0.130717
H7    H     H_    0.360876 0.892262 0.737868 0.115799
H8    H     H_    0.272388 0.912158 0.356150 0.163540
H9    H     H_    0.120733 0.975347 0.393821 0.154680
H10   H     H_    0.242334 0.982811 0.523865 0.141648
H11   H     H_    0.082990 0.816056 0.572082 0.160452
H12   H     H_    0.360827 0.363839 0.130344 0.116636
H13   H     H_    0.239448 0.758588 0.558342 0.174710
H14   H     H_    0.201189 0.688229 0.313785 0.171493
H15   H     H_    0.054349 0.762122 0.311192 0.131370
H16   H     H_    0.370156 0.113242 0.746169 0.111367
H17   H     H_    0.767574 0.232484 0.946884 0.156609
H18   H     H_    0.695627 0.174352 0.105106 0.159699
H19   H     H_    0.831237 0.098408 0.034906 0.139873
H20   H     H_    0.645294 0.976388 0.979597 0.146621
H21   H     H_    0.712471 0.038442 0.821816 0.166231
H22   H     H_    0.554983 0.223889 0.856244 0.184781
H23   H     H_    0.359396 0.365266 0.869525 0.111241
H24   H     H_    0.477702 0.125262 0.978586 0.121686
H25   H     H_    0.755134 0.517629 0.876136 0.157734
H26   H     H_    0.733561 0.690186 0.874392 0.121132
H27   H     H_    0.755279 0.517745 0.125158 0.159400
H28   H     H_    0.733827 0.690227 0.125455 0.115520
H29   H     H_    0.233519 0.284019 0.607639 0.125053
H30   H     H_    0.122593 0.107950 0.704214 0.097671
N1    N     N_R   0.500790 0.500930 0.147930 -0.229680
N2    N     N_R   0.500790 0.500890 0.852020 -0.232992
O1    O     O_R   0.500000 0.319640 0.618810 -0.521961
O2    O     O_R   0.500010 0.319680 0.381230 -0.507400
O3    O     O_R   0.319640 0.499980 0.618820 -0.507809
O4    O     O_R   0.319650 0.500020 0.381230 -0.507036
O5    O     O_R   0.499990 0.680320 0.618770 -0.497123
O6    O     O_R   0.500000 0.680360 0.381190 -0.506061
O7    O     O_R   0.680350 0.499980 0.618770 -0.508203
O8    O     O_R   0.680360 0.500020 0.381180 -0.503123

loop_
_geom_bond_atom_site_label_1
_geom_bond_atom_site_label_2
_ccdc_geom_bond_type
C22   C29   S    
C16   O7    A    
C19   C20   A    
Cu2   N1    S    
C1    C33   S    
C16   C31   S    
C21   C31   A    
C12   C23   A    
Cu1   O7    S    
C26   C27   S    
C7    C26   S    
C23   C29   A    
C7    H16   S    
C30   C31   A    
C18   C19   A    
Cu2   O8    S    
C13   H26   S    
Cu1   Cu2   S    
C12   C17   A    
C9    C10   A    
C22   H14   S    
C5    C32   A    
C2    C34   A    
Cu1   O3    S    
C13   C14   S    
C34   H5    S    
C25   H8    S    
C28   H19   S    
Cu2   O2    S    
C33   C34   A    
C24   C25   S    
C27   H21   S    
C20   H3    S    
C28   H18   S    
C27   H20   S    
C12   C21   A    
C1    O1    A    
C9    N1    A    
C29   C30   A    
C19   H2    S    
C14   H28   S    
C17   C18   A    
C6    H1    S    
C30   H4    S    
C26   H22   S    
Cu2   O6    S    
C9    H12   S    
C15   O5    A    
C6    H7    S    
C22   C24   S    
C25   H9    S    
C4    O4    A    
C3    C15   S    
C11   N2    A    
C24   H13   S    
C4    C23   S    
Cu1   O5    S    
C8    C14   S    
C7    C32   S    
C16   O8    A    
C24   H11   S    
C3    C5    A    
C28   H17   S    
C6    C7    S    
C10   N2    A    
C18   H30   S    
C17   H29   S    
C1    O2    A    
C32   C33   A    
C2    C3    A    
C11   C13   S    
C5    C6    S    
Cu1   N2    S    
C2    H6    S    
C8    C11   A    
C14   H27   S    
C10   H23   S    
C15   O6    A    
C13   H25   S    
C20   C21   A    
Cu1   O1    S    
C8    N1    A    
C27   C28   S    
C26   H24   S    
C25   H10   S    
C4    O3    A    
Cu2   O4    S    
C22   H15   S    
