data_str_m2_o4_o17_f0_pcu.sym.104
_audit_creation_date              2013-03-05T16:31:28-0500
_audit_creation_method            fapswitch 2.2
_symmetry_space_group_name_H-M    P1
_symmetry_Int_Tables_number       1
_space_group_crystal_system       triclinic
_cell_length_a                    15.047585
_cell_length_b                    10.848332
_cell_length_c                    9.592539
_cell_angle_alpha                 89.841785
_cell_angle_beta                  89.109133
_cell_angle_gamma                 90.796133
_cell_volume                      1565.55018748

loop_
_atom_site_label
_atom_site_type_symbol
_atom_site_description
_atom_site_fract_x
_atom_site_fract_y
_atom_site_fract_z
_atom_type_partial_charge
O1    O     O_R   0.500000 0.319640 0.618810 -0.548246
O2    O     O_R   0.500010 0.319680 0.381230 -0.589995
C1    C     C_R   0.497662 0.262570 0.500211 0.909373
O3    O     O_R   0.370250 0.499950 0.618800 -0.531678
O4    O     O_R   0.370260 0.499990 0.381220 -0.599474
C2    C     C_R   0.328966 0.497294 0.500610 0.857104
Cu1   Cu    Cu3+1 0.500000 0.499980 0.640670 1.058177
Cu2   Cu    Cu3+1 0.500000 0.500020 0.359330 1.037012
O5    O     O_R   0.499990 0.680320 0.618770 -0.598386
O6    O     O_R   0.500000 0.680360 0.381190 -0.543670
O7    O     O_R   0.629740 0.500010 0.618780 -0.573022
O8    O     O_R   0.629750 0.500050 0.381200 -0.579522
C3    C     C_R   0.498352 0.737569 0.499943 0.837157
C4    C     C_R   0.670795 0.501422 0.498924 0.881653
C5    C     C_R   0.814860 0.602171 0.453272 -0.182301
C6    C     C_R   0.766983 0.497399 0.495701 -0.191322
C7    C     C_R   0.810425 0.389374 0.533560 0.319910
C8    C     C_R   0.903643 0.386417 0.526389 -0.023019
C9    C     C_R   0.952743 0.493991 0.488755 0.001862
C10   C     C_R   0.908050 0.602514 0.450113 -0.036978
C11   C     C_R   0.948204 0.275841 0.547318 -0.139732
C12   C     C_R   0.040381 0.270988 0.538526 0.307393
C13   C     C_R   0.091013 0.381545 0.522321 -0.073442
C14   C     C_R   0.046375 0.492367 0.489209 -0.020426
C15   C     C_R   0.095289 0.600779 0.454309 -0.018674
C16   C     C_R   0.050609 0.709268 0.415729 0.241893
C17   C     C_R   0.957113 0.709359 0.411235 0.248556
C18   C     C_R   0.184538 0.384914 0.536432 0.317842
C19   C     C_R   0.232183 0.492849 0.499715 -0.156865
C20   C     C_R   0.188248 0.597178 0.454276 -0.183161
H1    H     H_    0.778320 0.683886 0.426206 0.229873
C21   C     C_R   0.493409 0.063664 0.625500 0.110488
C22   C     C_R   0.487603 0.129560 0.501192 -0.013182
C23   C     C_R   0.467956 0.064422 0.378485 -0.110627
C24   C     C_R   0.467629 0.935428 0.378954 -0.092725
C25   C     C_R   0.490065 0.870761 0.500510 -0.044284
C26   C     C_R   0.498537 0.937506 0.623889 0.021442
C27   C     C_3   0.563406 0.936815 0.741418 0.116115
C28   C     C_3   0.554991 0.076546 0.745137 -0.402378
H2    H     H_    0.616765 0.128271 0.716898 0.272793
C29   C     C_R   0.576875 0.519776 0.070960 0.144976
N1    N     N_R   0.500570 0.500930 0.147930 -0.201885
C30   C     C_R   0.427331 0.463208 0.077314 -0.070933
H3    H     H_    0.368976 0.431371 0.134607 0.182932
C31   C     C_R   0.427645 0.459902 0.929311 0.396129
N2    N     N_R   0.500570 0.500890 0.852020 -0.237470
C32   C     C_R   0.577066 0.518187 0.924397 0.129714
C33   C     C_3   0.641194 0.623178 0.912156 -0.423606
C34   C     C_3   0.639730 0.628270 0.071151 0.143643
H4    H     H_    0.453213 0.887230 0.283449 0.217874
H5    H     H_    0.536739 0.889740 0.836289 0.158788
N3    N     N_R   0.654133 0.900577 0.702949 0.151151
O9    O     O_R   0.716252 0.909309 0.795319 -0.261598
O10   O     O_R   0.674924 0.864406 0.577526 -0.320670
H6    H     H_    0.520223 0.109991 0.840573 0.205004
N4    N     N_R   0.355122 0.398987 0.864345 0.141987
O11   O     O_R   0.274478 0.434650 0.891297 -0.320649
O12   O     O_R   0.367566 0.288903 0.815416 -0.294976
H7    H     H_    0.706335 0.594047 0.868145 0.200871
H8    H     H_    0.611901 0.703333 0.859358 0.235146
H9    H     H_    0.704818 0.607503 0.118798 0.135144
N5    N     N_R   0.759717 0.282894 0.577798 0.097207
O13   O     O_R   0.705269 0.229153 0.492458 -0.362293
O14   O     O_R   0.770621 0.236907 0.701671 -0.328200
N6    N     N_R   0.599436 0.740985 0.124272 0.166999
O15   O     O_R   0.522570 0.776552 0.079886 -0.398888
O16   O     O_R   0.643053 0.810311 0.210773 -0.283651
H10   H     H_    0.911444 0.190100 0.561352 0.247307
N7    N     N_R   0.079902 0.151830 0.529030 0.185358
O17   O     O_R   0.129445 0.125495 0.421102 -0.225364
O18   O     O_R   0.053579 0.063676 0.612867 -0.221719
N8    N     N_R   0.230747 0.282073 0.593664 0.166374
O19   O     O_R   0.295983 0.232496 0.524467 -0.351090
O20   O     O_R   0.204388 0.233441 0.711684 -0.216096
H11   H     H_    0.228131 0.675902 0.420833 0.191255
N9    N     N_R   0.099780 0.819543 0.379661 0.157753
O21   O     O_R   0.154086 0.868849 0.468538 -0.262542
O22   O     O_R   0.086832 0.874540 0.261139 -0.233683
N10   N     N_R   0.912350 0.819236 0.369644 0.166461
O23   O     O_R   0.865253 0.819582 0.257033 -0.275071
O24   O     O_R   0.923546 0.921172 0.438651 -0.223672
H12   H     H_    0.455946 0.112491 0.281627 0.176449

loop_
_geom_bond_atom_site_label_1
_geom_bond_atom_site_label_2
_geom_bond_distance
_ccdc_geom_bond_type
C8    C11   1.397886 A    
C29   N1    1.368069 A    
C24   C25   1.407141 A    
Cu1   Cu2   2.698764 S    
C31   N2    1.382355 A    
Cu1   O7    1.960279 S    
C16   C17   1.408241 A    
N5    O13   1.300590 A    
C34   N6    1.461810 S    
C25   C26   1.395747 A    
C26   C27   1.502758 S    
N9    O22   1.301116 A    
C8    C9    1.415449 A    
C17   N10   1.435869 S    
O4    C2    1.294508 A    
O7    C4    1.296647 A    
C27   N3    1.467846 S    
C1    C22   1.448740 S    
C5    C6    1.393600 A    
N4    O11   1.301121 A    
C23   C24   1.399307 A    
C21   C28   1.491850 S    
N7    O18   1.301357 A    
O5    C3    1.297294 A    
N5    O14   1.301080 A    
C28   H6    1.111607 S    
C9    C10   1.415292 A    
C31   N4    1.421045 S    
N4    O12   1.299278 A    
C6    C7    1.399585 A    
N6    O16   1.300596 A    
C16   N9    1.436475 S    
C13   C14   1.422806 A    
C12   N7    1.432921 S    
C11   C12   1.390032 A    
C18   N8    1.435135 S    
O3    Cu1   1.966900 S    
C29   C34   1.499657 S    
N3    O10   1.301418 A    
C33   H8    1.105486 S    
C5    C10   1.402088 A    
C34   H9    1.112830 S    
Cu1   N2    2.027585 S    
C14   C15   1.415319 A    
C3    C25   1.452022 S    
O3    C2    1.301418 A    
C28   H2    1.108670 S    
N10   O24   1.300691 A    
C27   H5    1.109235 S    
C15   C16   1.414726 A    
C21   C26   1.371973 A    
O1    C1    1.297448 A    
C30   H3    1.080703 S    
C19   C20   1.391064 A    
C7    N5    1.435049 S    
C32   C33   1.485735 S    
Cu2   O8    1.966899 S    
C24   H4    1.079548 S    
C7    C8    1.404138 A    
C29   C32   1.406018 A    
C13   C18   1.415896 A    
N9    O21   1.301059 A    
C30   C31   1.420208 A    
N8    O20   1.301634 A    
C33   C34   1.526141 S    
O8    C4    1.295562 A    
C11   H10   1.082576 S    
C4    C6    1.448518 S    
N1    C30   1.361275 A    
N3    O9    1.300615 A    
C33   H7    1.111477 S    
C15   C20   1.399884 A    
Cu1   O5    1.967059 S    
N2    C32   1.364477 A    
C18   C19   1.405562 A    
O1    Cu1   1.968170 S    
O2    Cu2   1.967059 S    
Cu2   N1    2.027744 S    
N8    O19   1.299948 A    
O6    C3    1.298805 A    
O4    Cu2   1.960282 S    
C5    H1    1.082714 S    
C10   C17   1.411703 A    
C21   C22   1.393126 A    
O2    C1    1.296900 A    
C20   H11   1.081990 S    
C27   C28   1.523350 S    
C22   C23   1.407789 A    
C9    C14   1.409377 A    
N7    O17   1.301081 A    
N10   O23   1.301156 A    
C2    C19   1.456650 S    
Cu2   O6    1.968170 S    
N6    O15   1.301855 A    
C12   C13   1.418800 A    
C23   H12   1.083058 S    
