data_str_m2_o5_o28_f0_pcu.sym.97
_audit_creation_date              2013-03-05T16:35:54-0500
_audit_creation_method            fapswitch 2.2
_symmetry_space_group_name_H-M    P1
_symmetry_Int_Tables_number       1
_space_group_crystal_system       triclinic
_cell_length_a                    23.624175
_cell_length_b                    9.10334
_cell_length_c                    7.773646
_cell_angle_alpha                 90.004679
_cell_angle_beta                  90.007653
_cell_angle_gamma                 90.011111
_cell_volume                      1671.7916844

loop_
_atom_site_label
_atom_site_type_symbol
_atom_site_description
_atom_site_fract_x
_atom_site_fract_y
_atom_site_fract_z
_atom_type_partial_charge
O1    O     O_R   0.500000 0.288390 0.642760 -0.579017
O2    O     O_R   0.500000 0.711610 0.357240 -0.569013
O3    O     O_R   0.500000 0.711610 0.642760 -0.584773
O4    O     O_R   0.500000 0.288390 0.357240 -0.576744
H1    H     H_    0.948461 0.129880 0.507269 0.180568
H2    H     H_    0.051585 0.871354 0.511697 0.180600
H3    H     H_    0.948657 0.871515 0.495020 0.180441
H4    H     H_    0.051396 0.129788 0.491356 0.180412
C1    C     C_R   0.500023 0.219959 0.499997 0.899459
C2    C     C_R   0.499991 0.780042 0.500006 0.892869
O5    O     O_R   0.417880 0.500000 0.642820 -0.577369
O6    O     O_R   0.582120 0.500000 0.357180 -0.569425
O7    O     O_R   0.582120 0.500000 0.642820 -0.567592
O8    O     O_R   0.417880 0.500000 0.357180 -0.564151
C3    C     C_R   0.208499 0.500385 0.501279 0.349279
C4    C     C_R   0.791551 0.500838 0.500332 0.351189
C5    C     C_R   0.390645 0.499900 0.499982 0.876005
C6    C     C_R   0.609363 0.500117 0.500013 0.883729
Cu1   Cu    Cu3+1 0.500000 0.500000 0.669080 1.061389
Cu2   Cu    Cu3+1 0.500000 0.500000 0.330920 1.077397
C7    C     C_R   0.297580 0.575799 0.369544 -0.083242
C8    C     C_R   0.702399 0.425117 0.368978 -0.084890
C9    C     C_R   0.297776 0.423482 0.630850 -0.089028
C10   C     C_R   0.702284 0.576211 0.631169 -0.085261
C11   C     C_R   0.327854 0.499653 0.500043 -0.222327
C12   C     C_R   0.672168 0.500476 0.500060 -0.213518
C13   C     C_R   0.881169 0.631587 0.488208 0.587852
C14   C     C_R   0.118898 0.369747 0.487934 0.587976
C15   C     C_R   0.881094 0.369956 0.513364 0.587660
C16   C     C_R   0.118969 0.631229 0.515297 0.587146
N1    N     N_R   0.852586 0.500799 0.500624 -0.436653
N2    N     N_R   0.147471 0.500453 0.501634 -0.436496
C17   C     C_R   0.940387 0.366956 0.506368 -0.025680
C18   C     C_R   0.059675 0.634281 0.508130 -0.025227
C19   C     C_R   0.940458 0.634457 0.495828 -0.025746
C20   C     C_R   0.059606 0.366845 0.494978 -0.025880
C21   C     C_R   0.970183 0.500673 0.501242 -0.016089
C22   C     C_R   0.029881 0.500600 0.501478 -0.016077
C23   C     C_R   0.970468 0.233979 0.504471 -0.152094
C24   C     C_R   0.029588 0.767265 0.507488 -0.152357
C25   C     C_R   0.970609 0.767362 0.498008 -0.152276
C26   C     C_R   0.029452 0.233933 0.495439 -0.152445
C27   C     C_1   0.500026 0.065343 0.500005 -0.125857
C28   C     C_1   0.500014 0.934662 0.500019 -0.120985
C29   C     C_R   0.237924 0.570432 0.367438 0.092183
C30   C     C_R   0.762080 0.430878 0.366463 0.088945
C31   C     C_R   0.238096 0.429748 0.634360 0.089416
C32   C     C_R   0.761976 0.570745 0.633983 0.088718
N3    N     N_1   0.500000 0.500000 0.076820 -0.030383
N4    N     N_1   0.500000 0.500000 0.923180 -0.033402
O9    O     O_2   0.852290 0.758351 0.468241 -0.510611
O10   O     O_2   0.147793 0.243097 0.467192 -0.510877
O11   O     O_2   0.852136 0.243253 0.533038 -0.510655
O12   O     O_2   0.147938 0.757807 0.535943 -0.512650
N5    N     N_3   0.205979 0.639215 0.232504 -0.546750
H5    H     H_    0.215806 0.588208 0.116045 0.257299
H6    H     H_    0.217193 0.750154 0.225434 0.262333
N6    N     N_3   0.793971 0.362522 0.231115 -0.545716
H7    H     H_    0.783643 0.412864 0.114641 0.252278
H8    H     H_    0.783113 0.251312 0.224721 0.263778
N7    N     N_3   0.206305 0.361203 0.769800 -0.545544
H9    H     H_    0.216854 0.411120 0.886373 0.255217
H10   H     H_    0.216976 0.249857 0.775489 0.264029
N8    N     N_3   0.793781 0.639288 0.769437 -0.545513
H11   H     H_    0.783476 0.588865 0.885876 0.252681
H12   H     H_    0.782862 0.750447 0.775780 0.264056
C33   C     C_2   0.327444 0.668509 0.240861 0.892305
O13   O     O_2   0.359966 0.764566 0.289246 -0.591703
O14   O     O_R   0.318264 0.646554 0.065103 -0.740096
H13   H     H_    0.341188 0.716139 0.990837 0.340791
C34   C     C_2   0.672293 0.331985 0.241210 0.894752
O15   O     O_2   0.680161 0.349903 0.087129 -0.568561
O16   O     O_R   0.634802 0.223505 0.298266 -0.758067
H14   H     H_    0.616538 0.167771 0.199906 0.338609
C35   C     C_2   0.328021 0.328525 0.756563 0.895450
O17   O     O_2   0.319642 0.342475 0.910889 -0.565012
O18   O     O_R   0.366119 0.222471 0.697185 -0.757317
H15   H     H_    0.384341 0.165012 0.794214 0.338354
C36   C     C_2   0.672046 0.669519 0.758489 0.896239
O19   O     O_2   0.680256 0.653073 0.912574 -0.568753
O20   O     O_R   0.634102 0.776686 0.700966 -0.758092
H16   H     H_    0.615839 0.832776 0.799015 0.338508

loop_
_geom_bond_atom_site_label_1
_geom_bond_atom_site_label_2
_geom_bond_distance
_ccdc_geom_bond_type
N5    H5    1.043613 S    
O16   H14   1.013895 S    
C20   C26   1.403963 A    
Cu1   Cu2   2.628737 S    
C6    C12   1.483729 S    
C2    C28   1.407558 S    
C3    C31   1.404531 A    
C27   C28   1.189630 T    
C4    C32   1.404571 A    
O20   H16   1.013863 S    
C3    N2    1.441737 S    
O18   H15   1.013864 S    
C4    N1    1.441910 S    
C16   O12   1.349634 S    
O5    Cu1   1.950703 S    
C17   C23   1.403912 A    
O7    C6    1.283276 A    
C18   C24   1.403966 A    
C19   C21   1.406583 A    
C21   C22   1.410305 A    
H4    C26   1.081097 S    
C32   N8    1.436010 S    
N6    H8    1.045508 S    
C15   C17   1.402070 A    
N7    H10   1.045482 S    
O3    Cu1   1.937210 S    
C9    C11   1.421208 A    
C30   N6    1.436021 S    
O8    C5    1.283148 A    
N7    H9    1.043846 S    
C13   O9    1.349628 S    
C23   C26   1.395209 A    
C7    C29   1.410268 A    
C1    C27   1.407525 S    
C9    C31   1.411318 A    
C16   C18   1.402146 A    
C13   N1    1.372057 A    
C33   O13   1.223124 D    
C10   C32   1.411235 A    
O8    Cu2   1.950757 S    
C14   N2    1.372001 A    
O1    C1    1.272625 A    
C4    C30   1.404558 A    
C36   O20   1.398399 S    
O7    Cu1   1.950755 S    
C13   C19   1.402145 A    
N6    H7    1.043744 S    
O1    Cu1   1.937177 S    
O2    Cu2   1.937176 S    
C17   C21   1.406594 A    
C33   O14   1.397698 S    
N8    H12   1.045490 S    
C35   O17   1.222530 D    
Cu2   N3    1.975283 S    
C10   C36   1.487169 S    
O6    Cu2   1.950701 S    
C35   O18   1.398409 S    
C14   C20   1.402048 A    
C24   C25   1.395275 A    
C8    C30   1.411015 A    
H1    C23   1.081041 S    
H2    C24   1.081104 S    
C3    C29   1.404446 A    
O2    C2    1.272657 A    
C8    C34   1.486802 S    
C34   O16   1.398649 S    
C7    C11   1.421703 A    
O5    C5    1.283234 A    
C18   C22   1.406666 A    
C10   C12   1.421185 A    
C9    C35   1.487616 S    
C31   N7    1.435980 S    
C5    C11   1.483387 S    
N8    H11   1.043721 S    
N5    H6    1.045484 S    
C34   O15   1.223068 D    
C15   N1    1.372028 A    
O3    C2    1.272663 A    
C16   N2    1.371959 A    
C14   O10   1.349640 S    
Cu1   N4    1.975283 S    
C15   O11   1.349640 S    
C20   C22   1.406631 A    
H3    C25   1.081032 S    
O14   H13   1.013832 S    
C19   C25   1.403952 A    
C36   O19   1.222599 D    
O4    Cu2   1.937211 S    
C29   N5    1.435944 S    
N3    N4    1.194344 T    
C8    C12   1.421010 A    
O6    C6    1.283299 A    
O4    C1    1.272678 A    
C7    C33   1.486877 S    
