data_str_m2_o1_o10_f0_pcu.sym.175
_audit_creation_date              2013-03-05T16:03:41-0500
_audit_creation_method            fapswitch 2.2
_symmetry_space_group_name_H-M    P1
_symmetry_Int_Tables_number       1
_space_group_crystal_system       triclinic
_cell_length_a                    8.725913
_cell_length_b                    10.786124
_cell_length_c                    9.533613
_cell_angle_alpha                 90.304377
_cell_angle_beta                  97.882136
_cell_angle_gamma                 89.901632
_cell_volume                      888.801662603

loop_
_atom_site_label
_atom_site_type_symbol
_atom_site_description
_atom_site_fract_x
_atom_site_fract_y
_atom_site_fract_z
_atom_type_partial_charge
O1    O     O_R   0.499990 0.319660 0.618740 -0.560629
O2    O     O_R   0.500010 0.680340 0.381260 -0.560617
O3    O     O_R   0.499990 0.319630 0.381170 -0.584552
O4    O     O_R   0.500010 0.680370 0.618830 -0.584556
C1    C     C_R   0.499648 0.262541 0.499502 0.892370
C2    C     C_R   0.500349 0.737459 0.500497 0.892342
O5    O     O_R   0.274840 0.500010 0.591370 -0.591547
O6    O     O_R   0.725160 0.499990 0.408630 -0.591543
O7    O     O_R   0.274830 0.499980 0.353800 -0.579278
O8    O     O_R   0.725170 0.500020 0.646200 -0.579278
C3    C     C_R   0.203797 0.499521 0.463770 0.910975
C4    C     C_R   0.796203 0.500481 0.536230 0.910999
Cu1   Cu    Cu3+1 0.500000 0.500020 0.640660 1.000808
Cu2   Cu    Cu3+1 0.500000 0.499980 0.359340 1.000818
N1    N     N_R   0.500040 0.500030 0.852080 -0.169877
N2    N     N_R   0.499960 0.499970 0.147920 -0.169875
C5    C     C_2   0.037950 0.499454 0.443813 -0.296360
C6    C     C_2   0.962050 0.500549 0.556187 -0.296363
H1    H     H_    0.978091 0.498760 0.335989 0.173641
H2    H     H_    0.021909 0.501244 0.664010 0.173639
C7    C     C_R   0.373812 0.064160 0.422573 0.005356
C8    C     C_R   0.626193 0.935839 0.577417 0.005356
C9    C     C_R   0.375486 0.934279 0.423638 0.335027
C10   C     C_R   0.624522 0.065720 0.576350 0.335024
C11   C     C_R   0.500314 0.871475 0.501719 -0.219336
C12   C     C_R   0.499686 0.128524 0.498277 -0.219339
C13   C     C_R   0.395587 0.430463 0.060789 0.013185
C14   C     C_R   0.604412 0.569537 0.939211 0.013184
H3    H     H_    0.311926 0.374675 0.105789 0.120276
H4    H     H_    0.688073 0.625326 0.894211 0.120278
C15   C     C_R   0.395656 0.430454 0.912098 0.012874
C16   C     C_R   0.604343 0.569546 0.087902 0.012887
H5    H     H_    0.312151 0.374510 0.845360 0.134083
H6    H     H_    0.687849 0.625490 0.154640 0.134081
C17   C     C_3   0.235673 0.134733 0.348302 -0.687742
H7    H     H_    0.194346 0.202938 0.422416 0.203016
H8    H     H_    0.269175 0.184420 0.255576 0.224483
H9    H     H_    0.135709 0.074400 0.310625 0.273602
C18   C     C_3   0.764338 0.865262 0.651672 -0.687719
H10   H     H_    0.805640 0.797046 0.577557 0.202998
H11   H     H_    0.864316 0.925590 0.689320 0.273607
H12   H     H_    0.730853 0.815586 0.744412 0.224485
N3    N     N_R   0.250216 0.865389 0.346797 0.119902
O9    O     O_R   0.163594 0.795410 0.414066 -0.389324
O10   O     O_R   0.225696 0.869659 0.209180 -0.340964
N4    N     N_R   0.749808 0.134611 0.653165 0.119906
O11   O     O_R   0.836375 0.204619 0.585880 -0.389330
O12   O     O_R   0.774404 0.130307 0.790777 -0.340974

loop_
_geom_bond_atom_site_label_1
_geom_bond_atom_site_label_2
_geom_bond_distance
_ccdc_geom_bond_type
O5    Cu1   1.956464 S    
O7    Cu2   1.958271 S    
C15   H5    1.081740 S    
N1    C15   1.367504 A    
C7    C17   1.517322 S    
C13   H3    1.081305 S    
O7    C3    1.289057 A    
C17   H7    1.110831 S    
O6    C4    1.287356 A    
N3    O9    1.300916 A    
C10   N4    1.435629 S    
N2    C13   1.367396 A    
C14   H4    1.081306 S    
C5    C6    1.334528 D    
C18   H11   1.107654 S    
Cu1   Cu2   2.681994 S    
O5    C3    1.287355 A    
N3    O10   1.301081 A    
N1    C14   1.367395 A    
O2    C2    1.289743 A    
O3    Cu2   1.957479 S    
O8    C4    1.289058 A    
O1    C1    1.289749 A    
C8    C18   1.517328 S    
C8    C10   1.401034 A    
C17   H8    1.109327 S    
C7    C12   1.410377 A    
C10   C12   1.407103 A    
C18   H12   1.109326 S    
C6    H2    1.087301 S    
Cu1   N1    2.015549 S    
C7    C9    1.401031 A    
O2    Cu2   1.955473 S    
Cu2   N2    2.015547 S    
C2    C11   1.445500 S    
O1    Cu1   1.955472 S    
C13   C15   1.417645 A    
C1    C12   1.445505 S    
C18   H10   1.110829 S    
N4    O12   1.301076 A    
C14   C16   1.417646 A    
C17   H9    1.107659 S    
C9    N3    1.435631 S    
O4    C2    1.288484 A    
C9    C11   1.407083 A    
C4    C6    1.433520 S    
O4    Cu1   1.957480 S    
N2    C16   1.367504 A    
C3    C5    1.433520 S    
O6    Cu2   1.956462 S    
C5    H1    1.087301 S    
N4    O11   1.300879 A    
C8    C11   1.410377 A    
O3    C1    1.288477 A    
O8    Cu1   1.958269 S    
C16   H6    1.081740 S    
