data_str_m2_o1_o18_f0_pcu.sym.220
_audit_creation_date              2012-12-10T17:58:21-0500
_audit_creation_method            fapswitch 2.2
_symmetry_space_group_name_H-M    P1
_symmetry_Int_Tables_number       1
_space_group_crystal_system       triclinic
_cell_length_a                    9.613856
_cell_length_b                    10.829076
_cell_length_c                    15.407747
_cell_angle_alpha                 87.742861
_cell_angle_beta                  74.630446
_cell_angle_gamma                 90.238572
_cell_volume                      1545.34232059

loop_
_atom_site_label
_atom_site_type_symbol
_atom_type_description
_atom_site_fract_x
_atom_site_fract_y
_atom_site_fract_z
_atom_type_partial_charge
C1    C     C_R   0.000287 0.262450 0.499765 0.781183
C2    C     C_R   0.999959 0.737637 0.500998 0.738778
C3    C     C_R   0.581033 0.496685 0.098070 -0.243385
C4    C     C_R   0.430095 0.595995 0.908461 -0.260955
C5    C     C_R   0.725414 0.482360 0.054375 -0.162357
C6    C     C_R   0.288996 0.622837 0.953943 -0.150400
C7    C     C_R   0.894693 0.065013 0.472925 -0.212452
C8    C     C_R   0.110863 0.935194 0.526174 -0.208761
C9    C     C_R   0.891227 0.937510 0.477063 -0.200147
C10   C     C_R   0.111001 0.063358 0.525701 -0.174456
C11   C     C_R   0.000515 0.871717 0.501830 -0.006429
C12   C     C_R   0.002077 0.128606 0.499399 -0.014214
C13   C     C_R   0.548785 0.426408 0.560640 0.386188
C14   C     C_R   0.454551 0.564553 0.433947 0.391607
C15   C     C_R   0.397276 0.430928 0.563857 0.385801
C16   C     C_R   0.603470 0.562808 0.433381 0.408854
C17   C     C_R   0.917882 0.503047 0.672311 0.833685
C18   C     C_R   0.081614 0.503901 0.327785 0.808498
C19   C     C_R   0.870138 0.507147 0.771506 -0.134124
C20   C     C_R   0.128129 0.524791 0.229430 -0.133478
C21   C     C_R   0.920042 0.476065 0.916683 0.541824
C22   C     C_R   0.092526 0.620365 0.091889 0.550196
C23   C     C_R   0.968045 0.494970 0.823505 -0.294811
C24   C     C_R   0.038379 0.582035 0.182497 -0.310824
C25   C     C_R   0.723271 0.520436 0.814808 -0.243023
C26   C     C_R   0.271501 0.501984 0.184539 -0.222359
C27   C     C_R   0.673497 0.520767 0.909463 0.010576
C28   C     C_R   0.329993 0.540268 0.093912 -0.002388
C29   C     C_R   0.773109 0.492201 0.960554 0.061184
C30   C     C_R   0.236728 0.594612 0.046214 0.081112
C31   C     C_R   0.527280 0.545805 0.954589 0.106262
C32   C     C_R   0.478603 0.525497 0.049644 0.090191
Cu1   Cu    Cu3+1 0.140660 0.500020 0.500000 1.000291
Cu2   Cu    Cu3+1 0.859340 0.499980 0.500000 1.001397
H1    H     H_    0.799893 0.463364 0.094931 0.198317
H2    H     H_    0.219995 0.664319 0.915864 0.187734
H3    H     H_    0.335202 0.452005 0.221781 0.176325
H4    H     H_    0.648708 0.527955 0.773595 0.175050
H5    H     H_    0.927398 0.600465 0.216258 0.209853
H6    H     H_    0.081583 0.497505 0.792065 0.165592
H7    H     H_    0.554223 0.490858 0.170653 0.181685
H8    H     H_    0.462204 0.621745 0.837571 0.136269
H9    H     H_    0.813965 0.113481 0.448360 0.135067
H10   H     H_    0.195328 0.886051 0.546907 0.136965
H11   H     H_    0.803589 0.891211 0.460046 0.131672
H12   H     H_    0.195442 0.111083 0.546362 0.166965
N1    N     N_R   0.352080 0.500030 0.499980 -0.274652
N2    N     N_R   0.647920 0.499970 0.500020 -0.275287
O1    O     O_R   0.118740 0.319660 0.500000 -0.549316
O2    O     O_R   0.881260 0.680340 0.500000 -0.583943
O3    O     O_R   0.881170 0.319630 0.500010 -0.552375
O4    O     O_R   0.118830 0.680370 0.499990 -0.591769
O5    O     O_R   0.055570 0.500030 0.629830 -0.545239
O6    O     O_R   0.944430 0.499970 0.370170 -0.533096
O7    O     O_R   0.818000 0.500000 0.629840 -0.544279
O8    O     O_R   0.182000 0.500000 0.370160 -0.532756
O9    O     O_3   0.019507 0.448628 0.964554 -0.572051
C33   C     C_3   0.028623 0.319129 0.973799 -0.385351
H13   H     H_    0.063711 0.276493 0.907167 0.156747
H14   H     H_    0.924250 0.277097 0.013596 0.158854
H15   H     H_    0.110624 0.297436 0.010795 0.200861
O10   O     O_3   0.002230 0.677923 0.046837 -0.563574
C34   C     C_3   0.988226 0.802558 0.070455 -0.380396
H16   H     H_    0.095037 0.851026 0.053374 0.154635
H17   H     H_    0.932633 0.810832 0.143092 0.155117
H18   H     H_    0.921127 0.849833 0.031149 0.200321
O11   O     O_3   0.599403 0.341041 0.613497 -0.544426
C35   C     C_3   0.586271 0.221193 0.582743 -0.268492
H19   H     H_    0.613466 0.219188 0.507913 0.136001
H20   H     H_    0.476185 0.181842 0.610944 0.165894
H21   H     H_    0.661031 0.159426 0.606912 0.183012
O12   O     O_3   0.418523 0.613537 0.358648 -0.535968
C36   C     C_3   0.386398 0.740404 0.367600 -0.205374
H22   H     H_    0.465838 0.795474 0.315062 0.135579
H23   H     H_    0.383278 0.776832 0.434812 0.106177
H24   H     H_    0.280801 0.756849 0.353233 0.178720
O13   O     O_3   0.296557 0.353679 0.622640 -0.547534
C37   C     C_3   0.302326 0.364521 0.712734 -0.276889
H25   H     H_    0.199654 0.327091 0.756963 0.166774
H26   H     H_    0.318354 0.461882 0.729325 0.138292
H27   H     H_    0.385280 0.305238 0.729905 0.194078
O14   O     O_3   0.705696 0.599890 0.355319 -0.537107
C38   C     C_3   0.725127 0.729270 0.348739 -0.267392
H28   H     H_    0.838873 0.751068 0.346218 0.167868
H29   H     H_    0.652291 0.779970 0.404042 0.104170
H30   H     H_    0.709217 0.764107 0.283489 0.159609

loop_
_geom_bond_atom_site_label_1
_geom_bond_atom_site_label_2
_ccdc_geom_bond_type
C34   H17   S    
C9    H11   S    
C27   C29   A    
C36   H22   S    
C15   N1    A    
C16   N2    A    
O13   C37   S    
Cu1   O4    S    
Cu2   O3    S    
C20   C26   A    
C22   C24   A    
C8    C11   A    
C37   H26   S    
C33   H14   S    
C23   H6    S    
C24   H5    S    
C2    O2    A    
C20   C24   A    
C35   H19   S    
C10   H12   S    
C7    H9    S    
C17   O7    A    
C18   O8    A    
C33   H15   S    
C34   H18   S    
Cu2   O7    S    
C36   H23   S    
C1    C12   S    
C2    C11   S    
C10   C12   A    
C5    C29   A    
C21   C23   A    
Cu1   O5    S    
C7    C12   A    
Cu2   O2    S    
C27   C31   A    
O11   C35   S    
C28   C32   A    
C4    C6    A    
C37   H25   S    
C33   H13   S    
C21   C29   A    
C19   C23   A    
C21   O9    S    
O10   C34   S    
C25   H4    S    
C22   O10   S    
C9    C11   A    
C38   H28   S    
C16   O14   S    
Cu1   Cu2   S    
C1    O3    A    
C2    O4    A    
C35   H20   S    
C38   H29   S    
Cu2   O6    S    
C13   C15   A    
Cu1   N1    S    
C36   H24   S    
C14   C16   A    
Cu2   N2    S    
C17   O5    A    
C13   O11   S    
C7    C9    A    
C3    H7    S    
C22   C30   A    
C6    C30   A    
C14   O12   S    
C31   C32   A    
C8    H10   S    
O12   C36   S    
C3    C5    A    
C13   N2    A    
C26   H3    S    
C14   N1    A    
C25   C27   A    
C26   C28   A    
C28   C30   A    
C37   H27   S    
O9    C33   S    
C15   O13   S    
C4    H8    S    
Cu1   O8    S    
C35   H21   S    
C5    H1    S    
C17   C19   S    
C6    H2    S    
C18   C20   S    
C3    C32   A    
C19   C25   A    
C4    C31   A    
C18   O6    A    
C34   H16   S    
C38   H30   S    
C8    C10   A    
O14   C38   S    
Cu1   O1    S    
C1    O1    A    
