data_str_m2_o4_o17_f0_pcu.sym.209
_audit_creation_date              2012-12-10T19:00:46-0500
_audit_creation_method            fapswitch 2.2
_symmetry_space_group_name_H-M    P1
_symmetry_Int_Tables_number       1
_space_group_crystal_system       triclinic
_cell_length_a                    14.988854
_cell_length_b                    10.846415
_cell_length_c                    9.654065
_cell_angle_alpha                 91.834539
_cell_angle_beta                  90.021872
_cell_angle_gamma                 89.624168
_cell_volume                      1568.67457636

loop_
_atom_site_label
_atom_site_type_symbol
_atom_type_description
_atom_site_fract_x
_atom_site_fract_y
_atom_site_fract_z
_atom_type_partial_charge
C1    C     C_R   0.499485 0.262985 0.497475 0.787477
C2    C     C_R   0.903864 0.617307 0.484477 0.127359
C3    C     C_R   0.957260 0.304889 0.612361 -0.209799
C4    C     C_R   0.050082 0.307937 0.612513 -0.216428
C5    C     C_R   0.094879 0.410152 0.562632 0.125629
C6    C     C_R   0.046434 0.514517 0.521338 0.033511
C7    C     C_R   0.091513 0.621102 0.478565 0.007566
C8    C     C_R   0.041458 0.729192 0.456984 -0.240406
C9    C     C_R   0.948576 0.726584 0.457053 -0.196295
C10   C     C_R   0.187445 0.410000 0.555323 -0.343254
C11   C     C_R   0.232216 0.510517 0.502328 -0.133686
C12   C     C_R   0.329130 0.505404 0.500275 0.866554
C13   C     C_R   0.185361 0.616343 0.460265 0.375280
C14   C     C_R   0.443557 0.067994 0.583901 -0.102346
C15   C     C_R   0.495011 0.129975 0.489928 -0.063049
C16   C     C_R   0.545582 0.060596 0.393262 -0.225798
C17   C     C_R   0.548643 0.931829 0.399951 -0.214867
C18   C     C_R   0.497672 0.871002 0.499181 -0.082013
C19   C     C_R   0.438343 0.940330 0.581751 -0.039018
C20   C     C_3   0.425005 0.941443 0.735971 0.187456
C21   C     C_3   0.435757 0.081632 0.738320 0.223786
C22   C     C_R   0.578130 0.502934 0.073976 0.193876
C23   C     C_R   0.499489 0.737391 0.501178 0.812178
C24   C     C_R   0.425479 0.471836 0.072734 -0.087458
C25   C     C_R   0.425217 0.472665 0.924817 -0.051519
C26   C     C_R   0.577837 0.509276 0.928069 0.210033
C27   C     C_3   0.643629 0.613215 0.935054 0.265118
C28   C     C_3   0.650469 0.593726 0.092393 -0.597827
C29   C     C_R   0.670735 0.501120 0.500557 0.862116
C30   C     C_R   0.811182 0.612186 0.476537 -0.348948
C31   C     C_R   0.767237 0.502840 0.504522 -0.152337
C32   C     C_R   0.814461 0.397270 0.544060 0.403905
C33   C     C_R   0.907761 0.403618 0.560211 0.008192
C34   C     C_R   0.952615 0.512009 0.522691 0.020989
Cu1   Cu    Cu3+1 0.500000 0.499980 0.640670 0.997762
Cu2   Cu    Cu3+1 0.500000 0.500020 0.359330 0.925568
H1    H     H_    0.713791 0.546694 0.120441 0.169651
H2    H     H_    0.924602 0.224531 0.651955 0.166619
H3    H     H_    0.586464 0.105813 0.318323 0.153136
N1    N     N_R   0.500570 0.500930 0.147930 -0.186119
N2    N     N_R   0.500570 0.500890 0.852020 -0.164828
O1    O     O_R   0.500000 0.319640 0.618810 -0.554896
O2    O     O_R   0.500010 0.319680 0.381230 -0.584193
O3    O     O_R   0.370250 0.499950 0.618800 -0.595724
O4    O     O_R   0.370260 0.499990 0.381220 -0.596837
O5    O     O_R   0.499990 0.680320 0.618770 -0.541430
O6    O     O_R   0.500000 0.680360 0.381190 -0.608605
O7    O     O_R   0.629740 0.500010 0.618780 -0.568318
O8    O     O_R   0.629750 0.500050 0.381200 -0.601231
H4    H     H_    0.772937 0.692962 0.448493 0.147468
H5    H     H_    0.592288 0.880111 0.329728 0.145916
O9    O     O_3   0.340776 0.902433 0.787215 -0.630963
C35   C     C_3   0.265784 0.923318 0.701005 0.102212
H6    H     H_    0.245459 0.832974 0.654531 0.216482
H7    H     H_    0.277268 0.987876 0.615912 0.124745
C36   C     C_3   0.189130 0.977045 0.789074 -0.373813
H8    H     H_    0.182878 0.926521 0.886577 0.236778
H9    H     H_    0.203483 0.075233 0.816623 0.199780
C37   C     C_3   0.100351 0.968715 0.712083 -0.939250
H10   H     H_    0.105929 0.008781 0.608023 0.247816
H11   H     H_    0.048109 0.019934 0.772248 0.255293
H12   H     H_    0.079816 0.870816 0.700377 0.274707
H13   H     H_    0.479386 0.890785 0.784956 0.166869
H14   H     H_    0.374049 0.132582 0.769552 0.118210
O10   O     O_3   0.511715 0.126911 0.814760 -0.602109
C38   C     C_3   0.596799 0.095572 0.757707 0.104504
H15   H     H_    0.613158 0.154236 0.670091 0.184128
H16   H     H_    0.600790 0.997738 0.720868 0.126048
C39   C     C_3   0.669608 0.122551 0.864986 -0.343308
H17   H     H_    0.680820 0.223805 0.873126 0.224467
H18   H     H_    0.648170 0.092478 0.968480 0.214081
C40   C     C_3   0.757000 0.057318 0.824204 -0.927021
H19   H     H_    0.748488 0.955668 0.824251 0.257084
H20   H     H_    0.810615 0.082882 0.898626 0.258549
H21   H     H_    0.778414 0.084142 0.719555 0.272969
H22   H     H_    0.365343 0.446731 0.125589 0.140297
H23   H     H_    0.364006 0.451531 0.870224 0.139577
H24   H     H_    0.706257 0.589366 0.878405 0.105148
O11   O     O_3   0.602458 0.721536 0.884466 -0.578694
C41   C     C_3   0.591083 0.819888 0.982548 0.040521
H25   H     H_    0.594292 0.904351 0.924415 0.180286
H26   H     H_    0.646992 0.831134 0.057303 0.113778
C42   C     C_3   0.498404 0.814590 0.051092 -0.364444
H27   H     H_    0.450199 0.769379 0.978871 0.261816
H28   H     H_    0.501648 0.757583 0.143309 0.232319
C43   C     C_3   0.462304 0.942231 0.094939 -0.843676
H29   H     H_    0.517336 0.005450 0.124131 0.254638
H30   H     H_    0.415776 0.934315 0.183683 0.259830
H31   H     H_    0.424716 0.984173 0.009931 0.287885
O12   O     O_3   0.767670 0.288874 0.562260 -0.637276
C44   C     C_3   0.784171 0.203114 0.450574 -0.004379
H32   H     H_    0.744333 0.119349 0.469688 0.162622
H33   H     H_    0.854944 0.172527 0.447597 0.151631
C45   C     C_3   0.756964 0.251292 0.308379 -0.360440
H34   H     H_    0.684837 0.274739 0.308076 0.235955
H35   H     H_    0.795182 0.335432 0.284736 0.215542
C46   C     C_3   0.776692 0.155939 0.193552 -0.956996
H36   H     H_    0.847756 0.126405 0.196448 0.261452
H37   H     H_    0.764276 0.199510 0.093358 0.264740
H38   H     H_    0.733179 0.074137 0.202845 0.249972
H39   H     H_    0.632671 0.667487 0.169005 0.209084
H40   H     H_    0.087027 0.229811 0.650161 0.152438
H41   H     H_    0.225160 0.330496 0.588818 0.146003
O13   O     O_3   0.233664 0.717932 0.419115 -0.643607
C47   C     C_3   0.213898 0.748537 0.280535 0.019748
H42   H     H_    0.226299 0.848836 0.271246 0.165068
H43   H     H_    0.143610 0.732258 0.248825 0.140780
C48   C     C_3   0.273608 0.677225 0.178386 -0.350902
H44   H     H_    0.344476 0.688060 0.209687 0.260155
H45   H     H_    0.254716 0.578592 0.179484 0.210098
C49   C     C_3   0.261354 0.723206 0.032029 -0.908703
H46   H     H_    0.190472 0.715429 0.999457 0.252679
H47   H     H_    0.302727 0.667578 0.957995 0.269490
H48   H     H_    0.282546 0.820825 0.028744 0.286222
H49   H     H_    0.073539 0.815945 0.437285 0.163097
H50   H     H_    0.911729 0.809788 0.434054 0.138073

loop_
_geom_bond_atom_site_label_1
_geom_bond_atom_site_label_2
_ccdc_geom_bond_type
C38   H16   S    
C19   C20   S    
C27   H24   S    
C17   H5    S    
C46   H36   S    
C7    C8    A    
C29   O8    A    
C35   H6    S    
C48   H44   S    
C47   H43   S    
C26   C27   S    
C42   H27   S    
C25   H23   S    
C14   C21   S    
C10   H41   S    
C27   O11   S    
C41   C42   S    
C5    C6    A    
C43   H30   S    
C38   C39   S    
C3    C33   A    
C15   C16   A    
C36   H8    S    
Cu2   O6    S    
C18   C19   A    
C39   H18   S    
Cu1   O1    S    
C21   H14   S    
C8    H49   S    
C28   H39   S    
C1    O2    A    
C32   O12   S    
C49   H46   S    
C3    H2    S    
C36   H9    S    
C16   C17   A    
C4    H40   S    
C1    C15   S    
C40   H19   S    
C2    C34   A    
C38   H15   S    
C30   H4    S    
C37   H10   S    
C23   O5    A    
C22   C28   S    
C39   H17   S    
C40   H21   S    
Cu1   O7    S    
O13   C47   S    
C46   H37   S    
C33   C34   A    
C35   H7    S    
C47   C48   S    
C37   H11   S    
C23   O6    A    
C29   O7    A    
C18   C23   S    
Cu2   N1    S    
C24   C25   A    
C40   H20   S    
C25   N2    A    
C44   H32   S    
C43   H29   S    
C8    C9    A    
C45   C46   S    
C6    C34   A    
Cu1   Cu2   S    
C2    C9    A    
C39   C40   S    
C44   H33   S    
C31   C32   A    
C7    C13   A    
C22   N1    A    
C17   C18   A    
Cu2   O4    S    
C49   H47   S    
C13   O13   S    
C45   H35   S    
Cu1   O3    S    
C41   H26   S    
C42   H28   S    
C3    C4    A    
C46   H38   S    
O9    C35   S    
C35   C36   S    
C37   H12   S    
C21   O10   S    
C9    H50   S    
C14   C19   A    
C24   H22   S    
C41   H25   S    
C43   H31   S    
C11   C12   S    
C36   C37   S    
C6    C7    A    
C12   O4    A    
C47   H42   S    
C48   C49   S    
C2    C30   A    
C32   C33   A    
C20   H13   S    
C5    C10   A    
C29   C31   S    
C44   C45   S    
C11   C13   A    
O12   C44   S    
C30   C31   A    
C28   H1    S    
C24   N1    A    
C48   H45   S    
C49   H48   S    
C45   H34   S    
Cu1   N2    S    
C10   C11   A    
C16   H3    S    
O11   C41   S    
C1    O1    A    
C4    C5    A    
C42   C43   S    
C20   C21   S    
C20   O9    S    
O10   C38   S    
C22   C26   A    
C27   C28   S    
C14   C15   A    
C12   O3    A    
Cu2   O2    S    
Cu1   O5    S    
Cu2   O8    S    
C26   N2    A    
