data_str_m2_o4_o4_f0_pcu.sym.107
_audit_creation_date              2013-03-05T16:33:32-0500
_audit_creation_method            fapswitch 2.2
_symmetry_space_group_name_H-M    P1
_symmetry_Int_Tables_number       1
_space_group_crystal_system       triclinic
_cell_length_a                    10.792363
_cell_length_b                    10.879433
_cell_length_c                    9.5899
_cell_angle_alpha                 91.191412
_cell_angle_beta                  90.381486
_cell_angle_gamma                 92.166285
_cell_volume                      1124.91690171

loop_
_atom_site_label
_atom_site_type_symbol
_atom_site_description
_atom_site_fract_x
_atom_site_fract_y
_atom_site_fract_z
_atom_type_partial_charge
O1    O     O_R   0.500000 0.319640 0.618810 -0.604087
O2    O     O_R   0.500010 0.319680 0.381230 -0.584426
C1    C     C_R   0.495501 0.262684 0.498664 0.777102
O3    O     O_R   0.319650 0.499970 0.618810 -0.584297
O4    O     O_R   0.319660 0.500010 0.381230 -0.598619
C2    C     C_R   0.262027 0.496812 0.499415 0.807143
Cu1   Cu    Cu3+1 0.499990 0.499980 0.640670 1.001183
Cu2   Cu    Cu3+1 0.500010 0.500020 0.359330 1.040586
O5    O     O_R   0.499990 0.680320 0.618770 -0.595140
O6    O     O_R   0.500000 0.680360 0.381190 -0.574414
O7    O     O_R   0.680340 0.499990 0.618770 -0.544652
O8    O     O_R   0.680350 0.500030 0.381190 -0.492865
C3    C     C_R   0.499240 0.737894 0.500910 0.876618
C4    C     C_R   0.736156 0.484671 0.499419 0.913734
C5    C     C_R   0.063488 0.474870 0.623059 0.165132
C6    C     C_R   0.127447 0.486812 0.497891 -0.173626
C7    C     C_R   0.062735 0.467875 0.371581 -0.240054
H1    H     H_    0.113348 0.462600 0.274660 0.205237
C8    C     C_R   0.934239 0.444395 0.370428 0.354718
C9    C     C_R   0.868511 0.458610 0.497105 -0.260180
C10   C     C_R   0.934458 0.459958 0.623059 0.201526
C11   C     C_3   0.943440 0.351143 0.716639 -0.393569
C12   C     C_3   0.081449 0.373231 0.721912 -0.452021
H2    H     H_    0.901402 0.364045 0.820048 0.290782
H3    H     H_    0.914447 0.262646 0.663397 0.201067
H4    H     H_    0.133290 0.295801 0.676199 0.194274
C13   C     C_R   0.487643 0.068079 0.622629 0.025453
C14   C     C_R   0.482360 0.129708 0.497328 -0.046619
C15   C     C_R   0.464266 0.060651 0.372984 -0.166871
H5    H     H_    0.453046 0.105471 0.274140 0.156602
C16   C     C_R   0.467064 0.932161 0.374976 -0.156254
H6    H     H_    0.455388 0.881156 0.277347 0.151647
C17   C     C_R   0.490725 0.871564 0.500687 -0.028598
C18   C     C_R   0.496464 0.942200 0.624345 0.009805
C19   C     C_3   0.587684 0.953902 0.744216 0.146579
C20   C     C_3   0.572681 0.091608 0.743599 -0.425984
H7    H     H_    0.657909 0.146390 0.715956 0.224085
C21   C     C_R   0.527266 0.606324 0.075763 0.098484
N1    N     N_R   0.500790 0.500930 0.147930 -0.157714
C22   C     C_R   0.456110 0.400717 0.071674 0.011532
C23   C     C_R   0.454271 0.401490 0.923166 -0.008488
H8    H     H_    0.417728 0.321275 0.866259 0.118859
N2    N     N_R   0.500790 0.500890 0.852020 -0.157214
C24   C     C_R   0.533955 0.603037 0.929285 0.054694
C25   C     C_3   0.655583 0.672512 0.928923 0.087710
C26   C     C_3   0.636058 0.698295 0.084968 0.073863
H9    H     H_    0.656476 0.753455 0.864375 0.120427
H10   H     H_    0.602255 0.792817 0.102547 0.068640
N3    N     N_R   0.715731 0.923553 0.710533 0.140440
O9    O     O_R   0.743183 0.865733 0.595346 -0.305727
O10   O     O_R   0.803727 0.951828 0.800247 -0.315014
H11   H     H_    0.523163 0.126416 0.836755 0.165772
H12   H     H_    0.422564 0.319350 0.124499 0.116033
N4    N     N_R   0.756641 0.591782 0.895611 0.205784
O11   O     O_R   0.856041 0.637090 0.836826 -0.291329
O12   O     O_R   0.754048 0.479087 0.938677 -0.311152
N5    N     N_R   0.737649 0.674767 0.182765 0.199393
O13   O     O_R   0.734078 0.729199 0.304565 -0.319468
O14   O     O_R   0.846492 0.646149 0.138163 -0.248732
N6    N     N_R   0.875581 0.393823 0.245312 0.176562
O15   O     O_R   0.783068 0.314173 0.254574 -0.337045
O16   O     O_R   0.932652 0.401885 0.126518 -0.304592
H13   H     H_    0.116521 0.408174 0.825183 0.231832
H14   H     H_    0.551578 0.913236 0.841717 0.065452

loop_
_geom_bond_atom_site_label_1
_geom_bond_atom_site_label_2
_geom_bond_distance
_ccdc_geom_bond_type
C19   N3    1.469386 S    
O4    Cu2   1.959086 S    
N2    C24   1.358042 A    
C16   C17   1.412400 A    
N4    O12   1.301226 A    
C21   C24   1.406833 A    
C15   H5    1.083094 S    
Cu2   N1    2.027606 S    
Cu1   N2    2.026603 S    
C13   C20   1.486382 S    
C23   H8    1.079945 S    
N4    O11   1.300471 A    
C19   C20   1.513085 S    
C20   H11   1.111165 S    
Cu2   O8    1.956160 S    
Cu1   O5    1.977544 S    
C15   C16   1.399894 A    
C12   H13   1.112245 S    
C7    H1    1.082809 S    
Cu1   Cu2   2.698033 S    
C26   N5    1.471291 S    
O1    Cu1   1.968830 S    
C25   C26   1.534171 S    
C24   C25   1.489817 S    
C19   H14   1.109453 S    
Cu1   O7    1.959086 S    
C23   N2    1.371575 A    
N5    O13   1.300033 A    
C21   N1    1.373397 A    
O3    Cu1   1.956160 S    
C5    C12   1.488737 S    
C14   C15   1.404665 A    
C7    C8    1.400510 A    
O8    C4    1.297137 A    
C25   N4    1.458891 S    
C17   C18   1.399356 A    
O2    C1    1.297171 A    
C25   H9    1.086676 S    
C13   C18   1.376811 A    
O4    C2    1.296930 A    
C8    N6    1.441950 S    
O7    C4    1.307483 A    
C11   H2    1.101810 S    
N5    O14   1.299439 A    
O3    C2    1.298532 A    
C21   C26   1.514493 S    
C2    C6    1.452352 S    
C5    C6    1.394608 A    
C26   H10   1.113997 S    
C4    C9    1.466984 S    
C5    C10   1.395849 A    
C9    C10   1.397417 A    
C8    C9    1.419458 A    
C1    C14   1.448073 S    
N6    O16   1.301658 A    
C3    C17   1.460664 S    
C22   H12   1.080834 S    
C12   H4    1.112817 S    
N1    C22   1.370538 A    
N3    O9    1.301247 A    
N3    O10   1.301055 A    
O5    C3    1.303690 A    
C11   C12   1.500059 S    
C20   H7    1.113522 S    
C22   C23   1.424383 A    
C18   C19   1.508723 S    
O1    C1    1.296593 A    
C10   C11   1.505975 S    
O6    C3    1.296391 A    
Cu2   O6    1.968830 S    
O2    Cu2   1.977542 S    
C16   H6    1.082545 S    
C6    C7    1.401762 A    
N6    O15   1.301779 A    
C13   C14   1.390024 A    
C11   H3    1.113659 S    
