data_str_m2_o4_o16_f0_pcu.sym.216
_audit_creation_date              2012-12-10T19:00:15-0500
_audit_creation_method            fapswitch 2.2
_symmetry_space_group_name_H-M    P1
_symmetry_Int_Tables_number       1
_space_group_crystal_system       triclinic
_cell_length_a                    9.525558
_cell_length_b                    10.816577
_cell_length_c                    13.434334
_cell_angle_alpha                 90.816742
_cell_angle_beta                  73.756281
_cell_angle_gamma                 90.47178
_cell_volume                      1328.78800163

loop_
_atom_site_label
_atom_site_type_symbol
_atom_type_description
_atom_site_fract_x
_atom_site_fract_y
_atom_site_fract_z
_atom_type_partial_charge
C1    C     C_R   0.499034 0.737726 0.503696 0.793024
C2    C     C_R   0.435571 0.544693 0.980699 0.104918
C3    C     C_R   0.473768 0.559307 0.871842 0.003501
C4    C     C_R   0.541327 0.570982 0.034130 0.085233
C5    C     C_R   0.687259 0.596044 0.978071 0.044672
C6    C     C_R   0.714850 0.640205 0.876212 -0.047344
C7    C     C_R   0.606693 0.621476 0.824112 -0.226280
C8    C     C_R   0.506837 0.572082 0.142318 0.089815
C9    C     C_R   0.762613 0.539743 0.130112 -0.232962
C10   C     C_R   0.377433 0.512756 0.815149 -0.085649
C11   C     C_R   0.370361 0.935212 0.513530 0.132547
C12   C     C_R   0.422739 0.505950 0.700231 0.821294
C13   C     C_R   0.493090 0.870455 0.519288 -0.123935
C14   C     C_R   0.603402 0.934628 0.549651 -0.252031
C15   C     C_R   0.600709 0.064419 0.557655 -0.034721
C16   C     C_R   0.489362 0.129688 0.528008 -0.185862
C17   C     C_R   0.369093 0.062094 0.516798 0.123818
C18   C     C_3   0.286017 0.068344 0.438002 -0.458967
C19   C     C_3   0.287405 0.928247 0.434596 -0.440083
C20   C     C_R   0.938229 0.398471 0.465777 0.306044
C21   C     C_R   0.910976 0.597111 0.539142 -0.038511
C22   C     C_R   0.059362 0.596674 0.540263 -0.039315
C23   C     C_R   0.496865 0.262485 0.508059 0.835223
C24   C     C_R   0.086357 0.398616 0.464921 0.262616
C25   C     C_3   0.129707 0.345332 0.357204 -0.524526
C26   C     C_3   0.969965 0.343183 0.359940 -0.503144
C27   C     C_R   0.576426 0.511081 0.300984 0.805235
C28   C     C_R   0.798423 0.576682 0.026830 -0.137713
C29   C     C_R   0.615995 0.538869 0.189743 -0.096462
C30   C     C_R   0.239934 0.462380 0.869892 0.164400
C31   C     C_R   0.201554 0.455175 0.977531 -0.215745
C32   C     C_R   0.298837 0.492197 0.031833 -0.163546
Cu1   Cu    Cu3+1 0.359330 0.500020 0.500010 0.954470
Cu2   Cu    Cu3+1 0.640670 0.499980 0.499990 0.972322
H1    H     H_    0.849642 0.518664 0.164478 0.156432
H2    H     H_    0.174649 0.106246 0.472032 0.215793
H3    H     H_    0.351342 0.110260 0.364299 0.191602
H4    H     H_    0.177158 0.886321 0.465913 0.214201
H5    H     H_    0.353194 0.889413 0.359091 0.190065
H6    H     H_    0.844288 0.677174 0.567568 0.181278
H7    H     H_    0.103220 0.675809 0.571655 0.175136
H8    H     H_    0.195276 0.409169 0.298820 0.200480
H9    H     H_    0.176159 0.251772 0.351854 0.201994
H10   H     H_    0.944575 0.406208 0.302779 0.208927
H11   H     H_    0.924128 0.248198 0.360969 0.212649
H12   H     H_    0.912686 0.582917 0.984663 0.176986
H13   H     H_    0.267887 0.472507 0.113502 0.145989
H14   H     H_    0.098042 0.414032 0.019112 0.140214
H15   H     H_    0.626073 0.658452 0.747183 0.184002
H16   H     H_    0.691825 0.884066 0.566302 0.196123
N1    N     N_R   0.852320 0.499070 0.499340 -0.201331
N2    N     N_R   0.148230 0.499110 0.499340 -0.202831
O1    O     O_R   0.381190 0.680360 0.500000 -0.596644
O2    O     O_R   0.618780 0.680320 0.499990 -0.599989
O3    O     O_R   0.323230 0.500000 0.650990 -0.543544
O4    O     O_R   0.560820 0.499960 0.650980 -0.566378
O5    O     O_R   0.381220 0.319680 0.500010 -0.573075
O6    O     O_R   0.618810 0.319640 0.500000 -0.560219
O7    O     O_R   0.439180 0.500040 0.349020 -0.592221
O8    O     O_R   0.676770 0.500000 0.349010 -0.584983
C33   C     C_2   0.714172 0.125859 0.597610 0.868406
O9    O     O_2   0.681988 0.213497 0.658083 -0.579407
O10   O     O_R   0.856677 0.079553 0.569968 -0.782439
H17   H     H_    0.923558 0.128139 0.603185 0.324678
C34   C     C_2   0.845634 0.718302 0.828081 0.835413
O11   O     O_2   0.874544 0.744702 0.736561 -0.648409
O12   O     O_R   0.930270 0.769583 0.888303 -0.766336
H18   H     H_    0.014150 0.822153 0.846411 0.338142
N3    N     N_3   0.379290 0.640322 0.198196 -0.589749
H19   H     H_    0.302858 0.583750 0.247474 0.231220
H20   H     H_    0.410989 0.709897 0.242315 0.223534
N4    N     N_3   0.141665 0.411418 0.816218 -0.555437
H21   H     H_    0.122355 0.318624 0.836770 0.221152
H22   H     H_    0.042318 0.458458 0.841008 0.216241

loop_
_geom_bond_atom_site_label_1
_geom_bond_atom_site_label_2
_ccdc_geom_bond_type
C24   N2    A    
C23   O6    A    
Cu1   O3    S    
C27   C29   S    
C4    C8    A    
C25   H9    S    
C26   H10   S    
Cu1   N2    S    
Cu2   O4    S    
C11   C19   S    
Cu2   N1    S    
C8    C29   A    
C19   H5    S    
C2    C32   A    
C18   H3    S    
C20   N1    A    
C3    C7    A    
C27   O8    A    
C5    C6    A    
C22   H7    S    
C15   C16   A    
N3    H20   S    
C18   C19   S    
C33   O10   S    
C1    O1    A    
C26   H11   S    
C6    C34   S    
C20   C24   A    
C16   C17   A    
C34   O12   S    
C9    C29   A    
Cu1   O7    S    
C13   C14   A    
Cu2   O8    S    
C33   O9    D    
C17   C18   S    
Cu1   O1    S    
O12   H18   S    
C24   C25   S    
C7    H15   S    
N4    H22   S    
C8    N3    S    
N4    H21   S    
C25   C26   S    
C2    C4    A    
C1    O2    A    
C19   H4    S    
C5    C28   A    
C10   C30   A    
C31   C32   A    
C30   C31   A    
C28   H12   S    
Cu1   Cu2   S    
C15   C33   S    
C12   O4    A    
C10   C12   S    
Cu2   O2    S    
C16   C23   S    
C31   H14   S    
C32   H13   S    
C1    C13   S    
C21   N1    A    
C9    H1    S    
C23   O5    A    
C11   C17   A    
Cu1   O5    S    
C4    C5    A    
C25   H8    S    
C30   N4    S    
C6    C7    A    
C2    C3    A    
C3    C10   A    
C27   O7    A    
C11   C13   A    
C14   H16   S    
C21   H6    S    
C20   C26   S    
C22   N2    A    
N3    H19   S    
C12   O3    A    
O10   H17   S    
C34   O11   D    
Cu2   O6    S    
C14   C15   A    
C21   C22   A    
C18   H2    S    
C9    C28   A    
