data_str_m2_o1_o12_f0_pcu.sym.94
_audit_creation_date              2012-12-10T17:55:54-0500
_audit_creation_method            fapswitch 2.2
_symmetry_space_group_name_H-M    P1
_symmetry_Int_Tables_number       1
_space_group_crystal_system       triclinic
_cell_length_a                    11.040646
_cell_length_b                    10.863885
_cell_length_c                    9.710578
_cell_angle_alpha                 90.802852
_cell_angle_beta                  103.040756
_cell_angle_gamma                 99.086452
_cell_volume                      1118.95783444

loop_
_atom_site_label
_atom_site_type_symbol
_atom_type_description
_atom_site_fract_x
_atom_site_fract_y
_atom_site_fract_z
_atom_type_partial_charge
C1    C     C_R   0.501521 0.262573 0.500440 0.821223
C2    C     C_R   0.489358 0.735266 0.497329 0.812960
C3    C     C_R   0.263389 0.502615 0.441902 0.859816
C4    C     C_R   0.737310 0.501240 0.558252 0.872423
C5    C     C_R   0.410576 0.419056 0.050780 0.037784
C6    C     C_R   0.585928 0.585635 0.949006 0.034977
C7    C     C_R   0.410240 0.417249 0.901025 0.455692
C8    C     C_R   0.586509 0.586321 0.099124 0.464327
C9    C     C_2   0.128485 0.507404 0.409403 -0.366549
C10   C     C_2   0.874342 0.509961 0.590471 -0.350253
C11   C     C_2   0.071227 0.526089 0.513651 -0.087729
C12   C     C_2   0.934665 0.515429 0.484838 -0.096683
C13   C     C_R   0.447189 0.057182 0.372547 -0.199257
C14   C     C_R   0.506429 0.935561 0.621670 -0.250665
C15   C     C_R   0.431737 0.926332 0.366255 0.192389
C16   C     C_R   0.525695 0.064669 0.629482 0.191576
C17   C     C_R   0.474054 0.867042 0.493208 -0.110510
C18   C     C_R   0.495775 0.127049 0.501505 -0.080669
Cu1   Cu    Cu3+1 0.500000 0.500020 0.640660 0.992238
Cu2   Cu    Cu3+1 0.500000 0.499980 0.359340 0.988844
H1    H     H_    0.882844 0.509188 0.374865 0.211462
H2    H     H_    0.124914 0.546254 0.622007 0.215370
H3    H     H_    0.926205 0.513999 0.700265 0.163593
H4    H     H_    0.074787 0.492653 0.300418 0.152144
H5    H     H_    0.419335 0.105836 0.277346 0.155870
H6    H     H_    0.519646 0.887300 0.717579 0.164700
N1    N     N_R   0.500030 0.500030 0.852080 -0.277415
N2    N     N_R   0.499970 0.499970 0.147920 -0.279682
O1    O     O_R   0.499990 0.319660 0.618740 -0.512489
O2    O     O_R   0.500010 0.680340 0.381260 -0.515225
O3    O     O_R   0.499990 0.319630 0.381170 -0.630963
O4    O     O_R   0.500010 0.680370 0.618830 -0.608594
O5    O     O_R   0.320690 0.500020 0.575130 -0.495913
O6    O     O_R   0.679310 0.499980 0.424870 -0.502680
O7    O     O_R   0.320680 0.499990 0.337560 -0.611329
O8    O     O_R   0.679320 0.500010 0.662440 -0.630412
C19   C     C_3   0.312474 0.328462 0.105001 -0.252428
C20   C     C_3   0.177334 0.356764 0.067255 -0.684767
H7    H     H_    0.174864 0.453485 0.032399 0.253103
H8    H     H_    0.115925 0.287544 0.986179 0.288289
H9    H     H_    0.134731 0.345806 0.160408 0.189249
H10   H     H_    0.317146 0.230319 0.079917 0.190392
H11   H     H_    0.334035 0.327479 0.217980 0.238489
C21   C     C_3   0.688765 0.672573 0.896650 -0.263454
C22   C     C_3   0.694406 0.814018 0.912164 -0.718547
H12   H     H_    0.603653 0.836168 0.927538 0.257446
H13   H     H_    0.774082 0.857526 0.998451 0.305134
H14   H     H_    0.716183 0.859590 0.816742 0.191849
H15   H     H_    0.782520 0.645902 0.938732 0.201872
H16   H     H_    0.674156 0.660963 0.784681 0.255620
S1    S     S_3+6 0.280491 0.311878 0.782829 -0.007431
O9    O     O_2   0.261400 0.186574 0.845063 -0.352042
O10   O     O_2   0.163974 0.368948 0.774088 -0.354036
O11   O     O_3   0.281157 0.276034 0.614904 -0.507569
H17   H     H_    0.196674 0.227250 0.573278 0.359608
S2    S     S_3+6 0.698531 0.709413 0.215104 -0.005140
O12   O     O_2   0.826026 0.711930 0.183595 -0.354031
O13   O     O_2   0.654756 0.831346 0.178821 -0.351990
O14   O     O_3   0.727554 0.715289 0.391995 -0.501784
H18   H     H_    0.791056 0.791354 0.423934 0.360681
C23   C     C_3   0.361978 0.849864 0.230216 -0.360250
C24   C     C_3   0.282916 0.919800 0.117204 -0.828084
H19   H     H_    0.218158 0.967532 0.163173 0.260327
H20   H     H_    0.344739 0.988576 0.069241 0.260447
H21   H     H_    0.225298 0.852263 0.031400 0.254591
H22   H     H_    0.429501 0.810196 0.181340 0.262825
H23   H     H_    0.296094 0.770844 0.257986 0.199003
C25   C     C_3   0.584090 0.128220 0.775743 -0.363937
C26   C     C_3   0.719681 0.192541 0.786941 -0.787964
H24   H     H_    0.779442 0.122074 0.773462 0.251072
H25   H     H_    0.725244 0.262054 0.705327 0.250809
H26   H     H_    0.757703 0.241056 0.892920 0.240370
H27   H     H_    0.525660 0.192915 0.806499 0.251210
H28   H     H_    0.587814 0.059062 0.859242 0.190695

loop_
_geom_bond_atom_site_label_1
_geom_bond_atom_site_label_2
_ccdc_geom_bond_type
C21   H15   S    
C19   H11   S    
C26   H26   S    
C24   H20   S    
C11   C12   S    
C4    O8    A    
C9    H4    S    
C19   C20   S    
C16   C25   S    
C5    C19   S    
C10   H3    S    
C5    N2    A    
Cu1   N1    S    
C23   H23   S    
C11   H2    S    
C6    N1    A    
S2    O14   S    
C3    O7    A    
C2    O2    A    
S1    O11   S    
Cu2   O6    S    
C8    S2    S    
C13   C15   A    
C15   C23   S    
C7    S1    S    
O14   H18   S    
C16   C18   A    
C6    C21   S    
C22   H12   S    
C14   H6    S    
C2    C17   S    
C20   H8    S    
C9    C11   D    
C14   C17   A    
C13   H5    S    
C1    C18   S    
C24   H19   S    
C10   C12   D    
C13   C18   A    
C3    C9    S    
Cu1   O4    S    
C23   H22   S    
C26   H24   S    
S2    O13   D    
C19   H10   S    
C14   C16   A    
Cu1   O8    S    
C22   H13   S    
C20   H7    S    
C8    N2    A    
C4    O6    A    
C1    O1    A    
C26   H25   S    
C23   C24   S    
C3    O5    A    
C25   H28   S    
S1    O9    D    
Cu1   O1    S    
C1    O3    A    
C7    N1    A    
S2    O12   D    
C20   H9    S    
C2    O4    A    
Cu1   O5    S    
C22   H14   S    
C21   H16   S    
Cu2   O2    S    
C15   C17   A    
C5    C7    A    
C6    C8    A    
Cu2   N2    S    
C24   H21   S    
C25   H27   S    
O11   H17   S    
Cu2   O7    S    
C4    C10   S    
C12   H1    S    
C21   C22   S    
Cu1   Cu2   S    
C25   C26   S    
S1    O10   D    
Cu2   O3    S    
