data_str_m2_o1_o9_f0_pcu.sym.141
_audit_creation_date              2012-12-10T18:05:42-0500
_audit_creation_method            fapswitch 2.2
_symmetry_space_group_name_H-M    P1
_symmetry_Int_Tables_number       1
_space_group_crystal_system       triclinic
_cell_length_a                    10.891825
_cell_length_b                    10.819269
_cell_length_c                    9.550561
_cell_angle_alpha                 89.96033
_cell_angle_beta                  90.974957
_cell_angle_gamma                 89.393805
_cell_volume                      1125.22689806

loop_
_atom_site_label
_atom_site_type_symbol
_atom_type_description
_atom_site_fract_x
_atom_site_fract_y
_atom_site_fract_z
_atom_type_partial_charge
C1    C     C_R   0.499778 0.262193 0.499999 0.781515
C2    C     C_R   0.499794 0.737814 0.500014 0.783590
C3    C     C_R   0.871735 0.501513 0.504072 -0.089122
C4    C     C_R   0.128281 0.496827 0.495946 -0.088625
C5    C     C_R   0.941511 0.522278 0.627627 0.015048
C6    C     C_R   0.058532 0.475624 0.372435 0.015790
C7    C     C_R   0.487129 0.064144 0.373296 -0.197132
C8    C     C_R   0.511153 0.935888 0.626852 -0.197796
C9    C     C_R   0.487011 0.936326 0.373315 -0.198957
C10   C     C_R   0.511143 0.063702 0.626859 -0.195772
C11   C     C_R   0.499352 0.871722 0.500036 -0.011763
C12   C     C_R   0.499324 0.128303 0.500068 -0.013025
C13   C     C_R   0.540161 0.398989 0.075017 -0.010369
C14   C     C_R   0.459873 0.601030 0.924983 -0.019727
C15   C     C_R   0.540327 0.399077 0.926650 -0.001880
C16   C     C_R   0.459673 0.600926 0.073349 0.001940
C17   C     C_R   0.262246 0.498312 0.498487 0.795168
C18   C     C_R   0.737766 0.501173 0.501505 0.796537
C19   C     C_R   0.166377 0.530993 0.006308 -0.211964
C20   C     C_R   0.831588 0.468195 0.993490 -0.211920
C21   C     C_R   0.114137 0.549808 0.136526 -0.124367
C22   C     C_R   0.882875 0.448246 0.862819 -0.121094
C23   C     C_R   0.112997 0.453664 0.234405 0.102945
C24   C     C_R   0.887180 0.544857 0.765564 0.103022
C25   C     C_R   0.163524 0.337836 0.200649 -0.191362
C26   C     C_R   0.840974 0.662211 0.800392 -0.190424
C27   C     C_R   0.215188 0.317307 0.068593 0.321068
C28   C     C_R   0.791181 0.683508 0.933026 0.321723
C29   C     C_R   0.216055 0.415557 0.971691 -0.123095
C30   C     C_R   0.786199 0.585176 0.028972 -0.132063
C31   C     C_R   0.931570 0.478433 0.378414 -0.252281
C32   C     C_R   0.068423 0.519506 0.621633 -0.248418
Cu1   Cu    Cu3+1 0.500000 0.500020 0.640660 0.935241
Cu2   Cu    Cu3+1 0.500000 0.499980 0.359340 0.940247
H1    H     H_    0.257426 0.404665 0.870556 0.162888
H2    H     H_    0.744941 0.598694 0.130080 0.169232
H3    H     H_    0.574092 0.318349 0.872367 0.118562
H4    H     H_    0.425834 0.681622 0.127632 0.117342
H5    H     H_    0.170077 0.607177 0.933261 0.133102
H6    H     H_    0.825440 0.391961 0.066179 0.131796
H7    H     H_    0.075803 0.639697 0.161854 0.127933
H8    H     H_    0.918122 0.357282 0.836728 0.127236
H9    H     H_    0.163325 0.264209 0.277620 0.108342
H10   H     H_    0.843920 0.736564 0.724494 0.110082
H11   H     H_    0.879270 0.460810 0.283828 0.157498
H12   H     H_    0.120693 0.537185 0.716173 0.157454
H13   H     H_    0.477308 0.112413 0.274248 0.152286
H14   H     H_    0.520902 0.887630 0.725909 0.145828
H15   H     H_    0.476859 0.888413 0.274327 0.141263
H16   H     H_    0.521001 0.111586 0.725905 0.144722
H17   H     H_    0.573813 0.318178 0.130689 0.119014
H18   H     H_    0.426180 0.681822 0.869308 0.117614
N1    N     N_R   0.500030 0.500030 0.852070 -0.166715
N2    N     N_R   0.499970 0.499970 0.147930 -0.166204
O1    O     O_R   0.499990 0.319660 0.618740 -0.601626
O2    O     O_R   0.500010 0.680340 0.381260 -0.596400
O3    O     O_R   0.499990 0.319630 0.381170 -0.591529
O4    O     O_R   0.500010 0.680370 0.618830 -0.592817
O5    O     O_R   0.319650 0.500020 0.618780 -0.599696
O6    O     O_R   0.680350 0.499980 0.381220 -0.597754
O7    O     O_R   0.319640 0.500000 0.381210 -0.563751
O8    O     O_R   0.680360 0.500000 0.618790 -0.563763
N3    N     N_2   0.271391 0.200474 0.038731 -0.447746
H19   H     H_    0.261980 0.133993 0.115205 0.241715
C33   C     C_3   0.259092 0.152868 0.897516 -0.731378
H20   H     H_    0.296993 0.057230 0.893474 0.224438
H21   H     H_    0.312269 0.209439 0.823527 0.240926
H22   H     H_    0.160794 0.151029 0.864530 0.228464
N4    N     N_2   0.740033 0.801501 0.966132 -0.448297
H23   H     H_    0.730594 0.863430 0.884347 0.240708
C34   C     C_3   0.774520 0.856396 0.099445 -0.716160
H24   H     H_    0.815528 0.948616 0.081971 0.218917
H25   H     H_    0.843026 0.799079 0.158651 0.223964
H26   H     H_    0.691375 0.868273 0.163740 0.239831

loop_
_geom_bond_atom_site_label_1
_geom_bond_atom_site_label_2
_ccdc_geom_bond_type
Cu1   O1    S    
Cu2   O3    S    
C3    C31   A    
C16   H4    S    
C8    H14   S    
C9    H15   S    
Cu2   O2    S    
Cu1   O4    S    
C14   C16   A    
C1    O3    A    
C34   H26   S    
C14   H18   S    
C29   H1    S    
C26   C28   A    
C28   N4    S    
C13   C15   A    
C30   H2    S    
C3    C5    A    
C5    C32   A    
C25   H9    S    
N3    C33   S    
Cu1   Cu2   S    
C1    O1    A    
C26   H10   S    
C34   H24   S    
Cu1   O5    S    
C19   C29   A    
C4    C32   A    
C20   C30   A    
Cu2   O6    S    
C9    C11   A    
C10   H16   S    
C22   H8    S    
C1    C12   S    
C19   H5    S    
C17   O5    A    
C8    C11   A    
C21   H7    S    
C2    C11   S    
C10   C12   A    
C28   C30   A    
C19   C21   A    
C20   C22   A    
Cu2   N2    S    
C22   C24   A    
N4    H23   S    
C23   C25   A    
C21   C23   A    
Cu1   N1    S    
C2    O4    A    
C20   H6    S    
C16   N2    A    
C7    C12   A    
Cu1   O8    S    
C8    C10   A    
C27   C29   A    
C33   H20   S    
C6    C23   S    
N3    H19   S    
C6    C31   A    
C15   N1    A    
C34   H25   S    
C14   N1    A    
C4    C17   S    
C3    C18   S    
C4    C6    A    
C13   N2    A    
C31   H11   S    
C15   H3    S    
C18   O6    A    
C7    C9    A    
C5    C24   S    
C2    O2    A    
C27   N3    S    
C33   H22   S    
C17   O7    A    
C13   H17   S    
C32   H12   S    
Cu2   O7    S    
C18   O8    A    
C24   C26   A    
N4    C34   S    
C33   H21   S    
C25   C27   A    
C7    H13   S    
