data_str_m2_o1_o18_f0_pcu.sym.63
_audit_creation_date              2012-10-26T20:21:17-0400
_audit_creation_method            fapswitch 2.2
_symmetry_space_group_name_H-M    P1
_symmetry_Int_Tables_number       1
_space_group_crystal_system       triclinic
_cell_length_a                    9.759196
_cell_length_b                    10.8675
_cell_length_c                    15.865866
_cell_angle_alpha                 84.455786
_cell_angle_beta                  72.071325
_cell_angle_gamma                 89.674721
_cell_volume                      1592.98763823

loop_
_atom_site_label
_atom_site_type_symbol
_atom_type_description
_atom_site_fract_x
_atom_site_fract_y
_atom_site_fract_z
_atom_type_partial_charge
C1    C     C_R   0.004130 0.263876 0.492345 0.543017
C2    C     C_R   0.130138 0.061943 0.490089 -0.011277
C3    C     C_R   0.989748 0.870679 0.515657 0.010577
C4    C     C_R   0.008696 0.129492 0.483794 0.010459
C5    C     C_R   0.543977 0.423387 0.561229 0.116591
C6    C     C_R   0.455976 0.577769 0.439416 0.119767
C7    C     C_R   0.396438 0.422880 0.560839 0.122242
C8    C     C_R   0.604282 0.576165 0.438449 0.115683
C9    C     C_R   0.915767 0.497099 0.670917 0.541052
C10   C     C_R   0.083891 0.497810 0.329547 0.542046
C11   C     C_R   0.864244 0.483822 0.768083 -0.041433
C12   C     C_R   0.995637 0.736183 0.507495 0.546494
C13   C     C_R   0.135315 0.481894 0.235041 -0.038072
C14   C     C_R   0.891771 0.396800 0.907033 0.327279
C15   C     C_R   0.114929 0.383791 0.108331 0.325533
C16   C     C_R   0.944465 0.417963 0.814698 -0.141847
C17   C     C_R   0.058406 0.406177 0.198147 -0.151414
C18   C     C_R   0.725028 0.519010 0.813683 -0.159336
C19   C     C_R   0.275052 0.522402 0.185451 -0.157059
C20   C     C_R   0.672221 0.504649 0.907616 -0.060748
C21   C     C_R   0.334171 0.492423 0.098224 -0.061517
C22   C     C_R   0.767146 0.456658 0.953544 0.116645
C23   C     C_R   0.586107 0.465534 0.096620 -0.028436
C24   C     C_R   0.242774 0.446091 0.055452 0.124642
C25   C     C_R   0.525528 0.521107 0.957310 -0.010455
C26   C     C_R   0.482789 0.499191 0.052289 -0.015213
C27   C     C_3   0.543935 0.404992 0.191997 -0.401132
C28   C     C_3   0.418592 0.626745 0.839880 -0.414629
C29   C     C_3   0.774993 0.127273 0.442354 -0.371551
C30   C     C_3   0.219012 0.875369 0.561415 -0.370524
C31   C     C_3   0.717897 0.879408 0.538881 -0.372510
C32   C     C_3   0.281050 0.118827 0.456731 -0.372994
C33   C     C_3   0.581102 0.337272 0.631918 -0.342682
C34   C     C_R   0.413860 0.531359 0.916717 -0.028325
C35   C     C_3   0.417663 0.670230 0.372646 -0.345678
C36   C     C_3   0.290471 0.337437 0.631982 -0.346141
C37   C     C_3   0.712811 0.656707 0.364692 -0.342532
C38   C     C_R   0.730567 0.457425 0.045758 0.288931
C39   C     C_R   0.281029 0.469112 0.962414 0.287293
C40   C     C_R   0.883736 0.065278 0.482353 -0.009095
C41   C     C_R   0.113746 0.935245 0.517772 -0.010584
C42   C     C_R   0.868216 0.937911 0.508490 -0.010685
Cu1   Cu    Cu3+1 0.140660 0.500020 0.500000 0.889993
Cu2   Cu    Cu3+1 0.859340 0.499980 0.500000 0.884101
H1    H     H_    0.338815 0.574682 0.215174 0.136855
H2    H     H_    0.443511 0.347906 0.208897 0.149622
H3    H     H_    0.625626 0.338539 0.202271 0.145710
H4    H     H_    0.505784 0.697164 0.829499 0.133318
H5    H     H_    0.431125 0.581850 0.778036 0.113687
H6    H     H_    0.316508 0.678151 0.855161 0.157493
H7    H     H_    0.827553 0.201391 0.389020 0.149222
H8    H     H_    0.727724 0.060672 0.409478 0.111197
H9    H     H_    0.686521 0.165484 0.494549 0.145506
H10   H     H_    0.165620 0.799797 0.613282 0.159247
H11   H     H_    0.311967 0.839470 0.511275 0.141633
H12   H     H_    0.661263 0.555033 0.773534 0.149116
H13   H     H_    0.259907 0.943221 0.596579 0.112051
H14   H     H_    0.705175 0.807794 0.595829 0.155682
H15   H     H_    0.634626 0.948334 0.564212 0.109829
H16   H     H_    0.694745 0.839321 0.483093 0.142468
H17   H     H_    0.291600 0.191333 0.400586 0.155828
H18   H     H_    0.308940 0.157594 0.511285 0.141930
H19   H     H_    0.361892 0.048797 0.429677 0.110544
H20   H     H_    0.525721 0.366464 0.698941 0.104218
H21   H     H_    0.549090 0.240533 0.629327 0.077665
H22   H     H_    0.694660 0.330514 0.625313 0.209116
H23   H     H_    0.958409 0.360981 0.239685 0.104550
H24   H     H_    0.441186 0.765622 0.384075 0.083326
H25   H     H_    0.481768 0.654546 0.303887 0.084836
H26   H     H_    0.305727 0.670363 0.374452 0.206347
H27   H     H_    0.184284 0.328336 0.624451 0.202858
H28   H     H_    0.327917 0.241267 0.632092 0.073742
H29   H     H_    0.278738 0.369412 0.698052 0.093073
H30   H     H_    0.814902 0.673114 0.376334 0.206348
H31   H     H_    0.734065 0.614681 0.300957 0.110387
H32   H     H_    0.674207 0.751605 0.356250 0.072887
H33   H     H_    0.041988 0.374476 0.779196 0.092937
H34   H     H_    0.806677 0.484668 0.142050 0.302567
H35   H     H_    0.228547 0.454091 0.855513 0.302669
H36   H     H_    0.021880 0.260346 0.908322 0.332947
H37   H     H_    0.977739 0.248584 0.122987 0.334360
H38   H     H_    0.533269 0.475417 0.239255 0.120221
N1    N     N_R   0.352080 0.500030 0.499980 -0.228325
N2    N     N_R   0.647920 0.499970 0.500020 -0.230566
O1    O     O_R   0.118740 0.319660 0.500000 -0.518927
O2    O     O_3   0.180012 0.449706 0.920549 -0.634416
O3    O     O_3   0.945810 0.303338 0.951592 -0.577663
O4    O     O_3   0.058964 0.290779 0.074918 -0.584910
O5    O     O_R   0.881260 0.680340 0.500000 -0.519729
O6    O     O_R   0.881170 0.319630 0.500010 -0.519602
O7    O     O_R   0.118830 0.680370 0.499990 -0.515410
O8    O     O_R   0.055570 0.500030 0.629830 -0.511599
O9    O     O_R   0.944430 0.499970 0.370170 -0.516282
O10   O     O_R   0.818000 0.500000 0.629840 -0.521711
O11   O     O_R   0.182000 0.500000 0.370160 -0.518917
O12   O     O_3   0.838506 0.447049 0.084874 -0.634410

loop_
_geom_bond_atom_site_label_1
_geom_bond_atom_site_label_2
_ccdc_geom_bond_type
C7    N1    A    
C21   C26   A    
C11   C18   A    
C1    O6    A    
C31   C42   S    
Cu1   N1    S    
C7    C36   S    
C12   O7    A    
C37   H30   S    
C33   H21   S    
C3    C42   A    
C30   H10   S    
C10   O11   A    
C31   H14   S    
C19   C21   A    
C14   O3    S    
H36   O3    S    
C20   C25   A    
C2    C41   A    
C22   C38   A    
C30   H13   S    
C24   C39   A    
C6    C35   S    
C2    C32   S    
C16   H33   S    
C28   H5    S    
C23   C26   A    
C31   H15   S    
Cu2   O9    S    
C28   H6    S    
C28   H4    S    
C4    C40   A    
C35   H26   S    
H34   O12   S    
C5    C33   S    
Cu1   O11   S    
C30   C41   S    
C3    C12   S    
C23   C27   S    
C36   H27   S    
C18   H12   S    
C25   C34   A    
C40   C42   A    
C37   H31   S    
C28   C34   S    
C9    O8    A    
C33   H22   S    
C1    O1    A    
C17   H23   S    
C13   C19   A    
C34   C39   A    
Cu1   O1    S    
C12   O5    A    
C5    C7    A    
C5    N2    A    
C6    C8    A    
C10   O9    A    
C25   C26   A    
Cu1   O7    S    
C31   H16   S    
C2    C4    A    
Cu1   Cu2   S    
C11   C16   A    
C9    C11   S    
C27   H2    S    
C15   C24   A    
C37   H32   S    
C20   C22   A    
C14   C16   A    
C8    C37   S    
Cu2   O6    S    
C29   H7    S    
C27   H3    S    
C15   C17   A    
C3    C41   A    
C6    N1    A    
C8    N2    A    
C27   H38   S    
C32   H19   S    
Cu2   N2    S    
C10   C13   S    
C32   H17   S    
C19   H1    S    
C23   C38   A    
C30   H11   S    
Cu1   O8    S    
C13   C17   A    
C1    C4    S    
C14   C22   A    
C32   H18   S    
C29   H9    S    
C35   H24   S    
C33   H20   S    
C29   C40   S    
C18   C20   A    
H37   O4    S    
Cu2   O10   S    
C36   H29   S    
C35   H25   S    
C21   C24   A    
C38   O12   S    
C39   O2    S    
C9    O10   A    
H35   O2    S    
Cu2   O5    S    
C36   H28   S    
C15   O4    S    
C29   H8    S    
