data_str_m2_o4_o17_f0_pcu.sym.4
_audit_creation_date              2012-10-26T19:52:47-0400
_audit_creation_method            fapswitch 2.2
_symmetry_space_group_name_H-M    P1
_symmetry_Int_Tables_number       1
_space_group_crystal_system       triclinic
_cell_length_a                    15.011223
_cell_length_b                    10.87362
_cell_length_c                    9.602132
_cell_angle_alpha                 90.959091
_cell_angle_beta                  91.061723
_cell_angle_gamma                 90.972943
_cell_volume                      1566.59781006

loop_
_atom_site_label
_atom_site_type_symbol
_atom_type_description
_atom_site_fract_x
_atom_site_fract_y
_atom_site_fract_z
_atom_type_partial_charge
Br1   Br    Br    0.315883 0.397087 0.133930 -0.546564
Br2   Br    Br    0.103819 0.247995 0.823537 -0.539133
C1    C     C_R   0.499258 0.262301 0.498548 0.559505
C2    C     C_R   0.186888 0.425683 0.593488 -0.102600
C3    C     C_R   0.232421 0.497656 0.497646 0.004783
C4    C     C_R   0.328990 0.499283 0.499069 0.555610
C5    C     C_R   0.186109 0.569953 0.403071 -0.097385
C6    C     C_R   0.481989 0.065345 0.619263 -0.023369
C7    C     C_R   0.493126 0.128422 0.494841 0.008282
C8    C     C_R   0.495986 0.059255 0.368402 0.240036
C9    C     C_R   0.500350 0.931511 0.373253 -0.133533
C10   C     C_R   0.496410 0.870267 0.500098 -0.036571
C11   C     C_R   0.483335 0.938418 0.621785 0.011657
C12   C     C_R   0.906697 0.576040 0.406454 0.024003
C13   C     C_3   0.536240 0.938787 0.754748 -0.261304
C14   C     C_3   0.533937 0.078000 0.753083 -0.248564
C15   C     C_R   0.575558 0.529438 0.076363 0.147829
C16   C     C_R   0.500649 0.737346 0.500839 0.543287
C17   C     C_R   0.427549 0.458645 0.067300 0.227686
C18   C     C_R   0.428712 0.458435 0.920448 0.017659
C19   C     C_R   0.575817 0.528576 0.929458 0.149076
C20   C     C_3   0.628333 0.645818 0.926979 -0.277997
C21   C     C_3   0.626841 0.647698 0.085082 -0.275875
C22   C     C_R   0.671080 0.501243 0.501108 0.540560
C23   C     C_R   0.953267 0.351264 0.687198 -0.100519
C24   C     C_R   0.813690 0.577143 0.410116 -0.123263
C25   C     C_R   0.767768 0.502727 0.503110 -0.013151
C26   C     C_R   0.813926 0.428236 0.595836 -0.137681
C27   C     C_R   0.906692 0.425435 0.594105 -0.022838
C28   C     C_R   0.953398 0.499218 0.499246 0.008083
C29   C     C_3   0.884718 0.679529 0.101720 -0.006953
C30   C     C_3   0.959428 0.687752 0.995370 -0.264619
C31   C     C_3   0.924931 0.652176 0.849606 -0.458507
C32   C     C_3   0.423637 0.127647 0.173811 0.036907
C33   C     C_3   0.389146 0.007770 0.103493 -0.313559
C34   C     C_R   0.046181 0.350365 0.688896 0.164372
C35   C     C_3   0.313722 0.031829 0.999112 -0.435255
C36   C     C_R   0.093726 0.423571 0.594574 0.035391
C37   C     C_R   0.046826 0.497687 0.498967 0.015025
C38   C     C_R   0.093448 0.571942 0.404424 -0.024187
C39   C     C_R   0.047095 0.648888 0.314335 -0.091817
C40   C     C_R   0.954102 0.650579 0.313080 0.273062
Cu1   Cu    Cu3+1 0.500000 0.499980 0.640670 0.940331
Cu2   Cu    Cu3+1 0.500000 0.500020 0.359330 1.007338
H1    H     H_    0.776487 0.636592 0.342022 0.142842
H2    H     H_    0.693374 0.635720 0.133994 0.116522
H3    H     H_    0.777436 0.371333 0.667795 0.119206
H4    H     H_    0.587620 0.724355 0.129162 0.144693
H5    H     H_    0.917358 0.295019 0.760328 0.145482
H6    H     H_    0.224999 0.370722 0.665349 0.169421
H7    H     H_    0.222470 0.626736 0.330816 0.138886
H8    H     H_    0.083155 0.709029 0.245350 0.126025
H9    H     H_    0.827183 0.731881 0.061231 0.156944
H10   H     H_    0.861136 0.582209 0.111953 0.121088
H11   H     H_    0.987139 0.783165 0.994217 0.192840
H12   H     H_    0.509872 0.880919 0.276796 0.141135
H13   H     H_    0.013668 0.624406 0.024658 0.172611
H14   H     H_    0.893416 0.559162 0.850602 0.157188
H15   H     H_    0.981128 0.651430 0.776016 0.170123
H16   H     H_    0.875005 0.719206 0.812988 0.152014
H17   H     H_    0.433686 0.196400 0.091344 0.185492
H18   H     H_    0.372712 0.164248 0.245986 0.174869
H19   H     H_    0.444526 0.962480 0.049139 0.165610
H20   H     H_    0.363374 0.944338 0.183370 0.155453
H21   H     H_    0.257178 0.075879 0.052479 0.207565
H22   H     H_    0.289928 0.943346 0.951132 0.160630
H23   H     H_    0.497765 0.897723 0.840269 0.133695
H24   H     H_    0.337248 0.092676 0.915124 0.171064
H25   H     H_    0.604335 0.902182 0.741269 0.135212
H26   H     H_    0.493970 0.118309 0.838126 0.148328
H27   H     H_    0.600687 0.121795 0.739916 0.147967
H28   H     H_    0.370869 0.425627 0.861285 0.164778
H29   H     H_    0.696027 0.632603 0.884716 0.122440
H30   H     H_    0.590217 0.721206 0.879697 0.144937
N1    N     N_R   0.500570 0.500930 0.147930 -0.222801
N2    N     N_R   0.500570 0.500890 0.852020 -0.259705
O1    O     O_R   0.500000 0.319640 0.618810 -0.515118
O2    O     O_3   0.507466 0.114077 0.241062 -0.553361
O3    O     O_R   0.500010 0.319680 0.381230 -0.443358
O4    O     O_R   0.370250 0.499950 0.618800 -0.522807
O5    O     O_R   0.370260 0.499990 0.381220 -0.448913
O6    O     O_R   0.499990 0.680320 0.618770 -0.495833
O7    O     O_R   0.500000 0.680360 0.381190 -0.520001
O8    O     O_R   0.629740 0.500010 0.618780 -0.506452
O9    O     O_R   0.629750 0.500050 0.381200 -0.502414
O10   O     O_3   0.911086 0.735131 0.230571 -0.569535

loop_
_geom_bond_atom_site_label_1
_geom_bond_atom_site_label_2
_ccdc_geom_bond_type
C26   H3    S    
C6    C11   A    
C39   C40   A    
C17   C18   A    
C22   C25   S    
Cu2   O7    S    
C1    O3    A    
C8    O2    S    
C19   N2    A    
C24   C25   A    
C15   C21   S    
C26   C27   A    
C33   C35   S    
C3    C4    S    
C13   C14   S    
C35   H24   S    
C32   H18   S    
C18   N2    A    
C32   C33   S    
C24   H1    S    
C6    C7    A    
C35   H21   S    
C5    C38   A    
C33   H20   S    
C40   O10   S    
C7    C8    A    
C39   H8    S    
C12   C40   A    
C6    C14   S    
C4    O5    A    
C19   C20   S    
Cu1   O8    S    
C14   H27   S    
C30   H13   S    
C12   C28   A    
C23   C27   A    
C13   H25   S    
Br1   C17   S    
C14   H26   S    
Cu2   O5    S    
C37   C38   A    
C3    C5    A    
C29   O10   S    
Cu1   O4    S    
C32   H17   S    
C12   C24   A    
C2    H6    S    
Cu2   N1    S    
Cu1   Cu2   S    
C27   C28   A    
C1    C7    S    
C4    O4    A    
C29   C30   S    
C13   H23   S    
C35   H22   S    
C16   O7    A    
C29   H9    S    
C38   C39   A    
C2    C36   A    
C31   H16   S    
C11   C13   S    
C20   H30   S    
Cu2   O9    S    
C1    O1    A    
C15   N1    A    
C22   O9    A    
Br2   C34   S    
Cu1   N2    S    
C21   H4    S    
C30   H11   S    
Cu2   O3    S    
C2    C3    A    
C9    C10   A    
Cu1   O1    S    
C31   H14   S    
C30   C31   S    
C17   N1    A    
C22   O8    A    
C5    H7    S    
C32   O2    S    
C36   C37   A    
C34   C36   A    
C16   O6    A    
C28   C37   A    
C29   H10   S    
C23   H5    S    
C8    C9    A    
C23   C34   A    
C10   C11   A    
C31   H15   S    
C10   C16   S    
C25   C26   A    
C21   H2    S    
Cu1   O6    S    
C20   C21   S    
C18   H28   S    
C33   H19   S    
C20   H29   S    
C9    H12   S    
C15   C19   A    
