data_str_m2_o4_o29_f0_pcu.sym.223
_audit_creation_date              2013-03-05T16:33:12-0500
_audit_creation_method            fapswitch 2.2
_symmetry_space_group_name_H-M    P1
_symmetry_Int_Tables_number       1
_space_group_crystal_system       triclinic
_cell_length_a                    27.779015
_cell_length_b                    10.84697
_cell_length_c                    9.52973
_cell_angle_alpha                 90.07022
_cell_angle_beta                  89.928136
_cell_angle_gamma                 89.905157
_cell_volume                      2871.47218399

loop_
_atom_site_label
_atom_site_type_symbol
_atom_site_description
_atom_site_fract_x
_atom_site_fract_y
_atom_site_fract_z
_atom_type_partial_charge
O1    O     O_R   0.500000 0.319640 0.618810 -0.584150
O2    O     O_R   0.500010 0.319680 0.381230 -0.588450
C1    C     C_R   0.500158 0.262676 0.499790 0.806203
O3    O     O_R   0.430260 0.500000 0.618780 -0.585358
O4    O     O_R   0.430270 0.500040 0.381190 -0.583723
C2    C     C_R   0.407410 0.500218 0.500094 0.802249
Cu1   Cu    Cu3+1 0.500000 0.499980 0.640670 0.939314
Cu2   Cu    Cu3+1 0.500000 0.500020 0.359330 0.941634
O5    O     O_R   0.499990 0.680320 0.618770 -0.578620
O6    O     O_R   0.500000 0.680360 0.381190 -0.587106
O7    O     O_R   0.569730 0.499960 0.618810 -0.585611
O8    O     O_R   0.569740 0.500000 0.381220 -0.581456
C3    C     C_R   0.500260 0.737325 0.499883 0.808286
C4    C     C_R   0.592381 0.499537 0.499990 0.847874
C5    C     C_R   0.178465 0.391480 0.468319 0.546227
O9    O     O_2   0.204551 0.292931 0.426851 -0.497670
N1    N     N_R   0.201740 0.497968 0.503941 -0.472930
C6    C     C_R   0.176973 0.601206 0.543355 0.533406
C7    C     C_R   0.278815 0.504459 0.629057 -0.114770
C8    C     C_R   0.328990 0.504489 0.628332 -0.216466
C9    C     C_R   0.328600 0.497273 0.373811 -0.217410
C10   C     C_R   0.278384 0.497084 0.374876 -0.097942
C11   C     C_R   0.253357 0.500538 0.502472 0.352851
C12   C     C_R   0.101510 0.491737 0.511617 -0.110898
C13   C     C_R   0.127725 0.384856 0.474363 -0.126274
C14   C     C_R   0.102647 0.274380 0.447789 0.496388
C15   C     C_R   0.126539 0.600215 0.547428 0.014814
C16   C     C_R   0.354377 0.500715 0.500650 -0.039284
H1    H     H_    0.347170 0.494307 0.273870 0.157181
H2    H     H_    0.258863 0.494038 0.276653 0.141333
C17   C     C_R   0.645002 0.497018 0.500163 -0.148726
C18   C     C_R   0.974345 0.386139 0.458897 0.069759
C19   C     C_R   0.973578 0.593820 0.564781 0.038878
C20   C     C_R   0.948677 0.489986 0.510712 0.071898
C21   C     C_R   0.947894 0.289018 0.396661 -0.205043
C22   C     C_R   0.897902 0.291729 0.391111 -0.158000
C23   C     C_R   0.872297 0.390916 0.447841 -0.027019
C24   C     C_R   0.897541 0.490098 0.508317 -0.045995
C25   C     C_R   0.871551 0.589537 0.566177 -0.025990
C26   C     C_R   0.821066 0.587255 0.564014 0.583276
N2    N     N_R   0.797364 0.490775 0.502980 -0.421027
C27   C     C_R   0.821784 0.393967 0.444428 0.583059
C28   C     C_R   0.719932 0.421782 0.599555 0.436085
C29   C     C_R   0.669609 0.428196 0.601597 -0.319711
C30   C     C_R   0.670838 0.562861 0.398841 -0.326266
C31   C     C_R   0.721261 0.563708 0.401329 0.443360
C32   C     C_R   0.745774 0.491400 0.500637 0.205411
O10   O     O_2   0.797246 0.301311 0.382802 -0.575622
C33   C     C_R   0.025378 0.383330 0.469500 -0.021222
C34   C     C_R   0.050335 0.490559 0.513261 0.065378
C35   C     C_R   0.024616 0.597216 0.557362 0.064078
C36   C     C_R   0.052364 0.275880 0.440059 -0.302235
H3    H     H_    0.649777 0.377310 0.680379 0.164811
H4    H     H_    0.879363 0.215171 0.342101 0.181856
H5    H     H_    0.964838 0.210772 0.347261 0.142606
H6    H     H_    0.035403 0.189484 0.414695 0.145974
O11   O     O_2   0.201156 0.704866 0.577341 -0.550850
C37   C     C_R   0.100860 0.705714 0.585820 -0.159545
H7    H     H_    0.347834 0.507216 0.727703 0.157991
H8    H     H_    0.259635 0.506615 0.728034 0.137918
H9    H     H_    0.119256 0.790351 0.612056 0.166188
C38   C     C_R   0.946363 0.690819 0.625028 -0.207302
C39   C     C_R   0.896372 0.688380 0.625777 -0.152273
O12   O     O_2   0.795802 0.680503 0.622565 -0.574976
C40   C     C_R   0.050979 0.704616 0.590770 -0.209222
H10   H     H_    0.962638 0.769057 0.675887 0.138486
H11   H     H_    0.651947 0.616098 0.320240 0.162564
H12   H     H_    0.877219 0.765021 0.673050 0.180867
H13   H     H_    0.034108 0.791034 0.617419 0.130985
C41   C     C_R   0.501036 0.062200 0.621184 0.132282
C42   C     C_R   0.500611 0.130092 0.498020 -0.104769
C43   C     C_R   0.500669 0.064444 0.370010 -0.215133
H14   H     H_    0.500485 0.112124 0.270209 0.166999
C44   C     C_R   0.500769 0.935222 0.370092 -0.217071
H15   H     H_    0.500669 0.887274 0.270313 0.166824
C45   C     C_R   0.500781 0.869911 0.498194 -0.105815
C46   C     C_R   0.501171 0.938158 0.621293 0.133622
C47   C     C_3   0.501085 0.929541 0.777325 -0.469776
C48   C     C_3   0.500895 0.071525 0.777161 -0.471284
H16   H     H_    0.467304 0.888430 0.818709 0.204084
H17   H     H_    0.534956 0.889020 0.818731 0.191421
H18   H     H_    0.466959 0.112345 0.818306 0.194832
H19   H     H_    0.534633 0.112834 0.818458 0.200571
C49   C     C_R   0.524446 0.588835 0.073727 0.259117
N3    N     N_R   0.500300 0.500930 0.147930 -0.184351
C50   C     C_R   0.472292 0.419712 0.074468 -0.080118
H20   H     H_    0.450624 0.353134 0.130449 0.138931
C51   C     C_R   0.472281 0.419733 0.925463 -0.081035
H21   H     H_    0.450571 0.353264 0.869448 0.137015
N4    N     N_R   0.500310 0.500890 0.852020 -0.185485
C52   C     C_R   0.524484 0.588750 0.926207 0.251848
C53   C     C_3   0.577281 0.613146 0.920289 -0.483545
C54   C     C_3   0.577215 0.613466 0.079416 -0.514086
H22   H     H_    0.598143 0.534957 0.875327 0.225681
H23   H     H_    0.585606 0.704711 0.874222 0.187916
H24   H     H_    0.598060 0.535443 0.124357 0.227711
H25   H     H_    0.585347 0.705346 0.125369 0.185294
O13   O     O_3   0.747059 0.629554 0.302281 -0.594228
C55   C     C_3   0.741873 0.758055 0.325620 0.093219
H26   H     H_    0.778311 0.796724 0.344651 0.179644
H27   H     H_    0.719484 0.783105 0.419104 0.139022
C56   C     C_3   0.720695 0.819090 0.194813 -0.363107
H28   H     H_    0.744279 0.799785 0.103019 0.247040
H29   H     H_    0.684509 0.780112 0.172967 0.214079
C57   C     C_3   0.716143 0.958395 0.214048 -0.897069
H30   H     H_    0.692137 0.979876 0.304201 0.252646
H31   H     H_    0.700514 0.000040 0.117984 0.258397
H32   H     H_    0.752092 0.999959 0.232798 0.273263
O14   O     O_3   0.127346 0.165500 0.421533 -0.559605
C58   C     C_3   0.121646 0.082554 0.535296 0.073925
H33   H     H_    0.133203 0.990117 0.497955 0.183467
H34   H     H_    0.083406 0.072841 0.568753 0.106710
C59   C     C_3   0.153363 0.118785 0.660798 -0.340550
H35   H     H_    0.191432 0.126787 0.626270 0.267075
H36   H     H_    0.141515 0.209398 0.703099 0.202515
C60   C     C_3   0.150462 0.023605 0.778216 -0.886079
H37   H     H_    0.112475 0.009296 0.810855 0.251051
H38   H     H_    0.171275 0.056620 0.870252 0.270128
H39   H     H_    0.166166 0.934650 0.742940 0.277437
O15   O     O_3   0.744272 0.352741 0.698811 -0.595405
C61   C     C_3   0.740018 0.225276 0.667881 0.096254
H40   H     H_    0.776917 0.187598 0.653315 0.180455
H41   H     H_    0.719715 0.203963 0.569464 0.142611
C62   C     C_3   0.716249 0.158694 0.791215 -0.368399
H42   H     H_    0.737722 0.174245 0.887979 0.244989
H43   H     H_    0.679531 0.196518 0.808528 0.213056
C63   C     C_3   0.712549 0.020300 0.763688 -0.897038
H44   H     H_    0.690775 0.002513 0.668072 0.251645
H45   H     H_    0.694795 0.974651 0.854146 0.256670
H46   H     H_    0.748974 0.979632 0.749718 0.274454

loop_
_geom_bond_atom_site_label_1
_geom_bond_atom_site_label_2
_geom_bond_distance
_ccdc_geom_bond_type
N2    C27   1.367268 A    
C1    C42   1.438247 S    
C21   C22   1.390068 A    
C12   C15   1.409521 A    
C4    C17   1.461978 S    
Cu1   Cu2   2.681094 S    
C46   C47   1.489997 S    
Cu1   O7    1.947940 S    
C57   H31   1.109944 S    
N1    C11   1.434257 S    
C44   C45   1.412197 A    
C22   C23   1.396711 A    
C24   C25   1.408420 A    
O7    C4    1.294708 A    
C47   H16   1.111703 S    
C5    C13   1.412562 A    
C5    O9    1.348934 S    
C60   H37   1.110943 S    
C56   C57   1.526917 S    
C5    N1    1.367301 A    
Cu2   N3    2.014629 S    
C35   C40   1.413272 A    
C23   C27   1.403958 A    
O5    C3    1.291397 A    
C58   H33   1.110309 S    
C61   C62   1.529935 S    
C37   C40   1.386438 A    
C39   H12   1.083568 S    
C29   H3    1.082966 S    
C2    C16   1.473192 S    
C7    C8    1.393824 A    
C19   C38   1.415273 A    
C30   H11   1.082114 S    
C41   C42   1.386427 A    
C49   C52   1.405818 A    
C28   O15   1.383597 S    
C59   C60   1.525559 S    
C37   H9    1.080640 S    
C31   O13   1.384301 S    
O1    Cu1   1.966950 S    
C9    C10   1.395000 A    
C41   C46   1.345484 A    
O3    Cu1   1.948770 S    
C19   C20   1.419349 A    
C45   C46   1.386436 A    
C12   C34   1.421728 A    
C57   H32   1.110946 S    
C17   C29   1.400231 A    
C38   H10   1.077170 S    
C21   H5    1.077346 S    
C18   C21   1.415481 A    
C12   C13   1.412783 A    
C43   C44   1.401661 A    
C44   H15   1.083251 S    
C52   C53   1.491771 S    
C47   C48   1.540101 S    
C8    C16   1.406128 A    
C34   C35   1.421549 A    
C13   C14   1.409932 A    
N3    C50   1.368816 A    
Cu1   N4    2.014151 S    
C9    H1    1.082989 S    
O6    C3    1.288246 A    
C53   H23   1.110965 S    
O1    C1    1.290945 A    
C18   C20   1.419925 A    
C7    C11   1.399734 A    
C28   C29   1.399654 A    
C63   H45   1.110100 S    
C23   C24   1.408299 A    
C14   C36   1.398901 A    
C48   H18   1.111646 S    
C6    O11   1.350041 S    
C55   H26   1.111353 S    
C14   O14   1.387201 S    
C3    C45   1.438366 S    
Cu2   O8    1.948764 S    
C33   C36   1.412411 A    
C38   C39   1.389006 A    
C53   H22   1.111579 S    
N1    C6    1.365346 A    
N2    C32   1.433321 S    
C27   O10   1.349619 S    
C49   N3    1.364442 A    
C8    H7    1.082993 S    
C56   H29   1.110967 S    
C58   C59   1.537451 S    
C61   H40   1.111342 S    
C62   C63   1.527241 S    
O3    C2    1.297680 A    
C26   N2    1.367031 A    
C55   H27   1.118821 S    
C9    C16   1.406179 A    
C51   N4    1.368731 A    
O13   C55   1.418289 S    
C54   H24   1.111253 S    
C63   H44   1.111158 S    
C54   H25   1.111744 S    
C25   C26   1.402865 A    
O15   C61   1.418479 S    
C50   H20   1.081682 S    
C62   H43   1.110841 S    
C59   H35   1.110703 S    
Cu1   O5    1.967497 S    
C31   C32   1.405759 A    
C10   H2    1.082863 S    
C41   C48   1.489736 S    
C20   C24   1.420699 A    
O2    Cu2   1.967499 S    
C6    C15   1.401547 A    
O8    C4    1.295552 A    
C43   H14   1.083178 S    
C15   C37   1.395664 A    
O4    Cu2   1.947943 S    
C7    H8    1.082931 S    
C19   C35   1.420021 A    
C25   C39   1.396219 A    
C57   H30   1.111150 S    
C26   O12   1.349896 S    
C60   H39   1.109854 S    
O2    C1    1.288640 A    
C63   H46   1.110945 S    
C42   C43   1.411771 A    
O14   C58   1.418568 S    
C48   H19   1.111725 S    
C47   H17   1.110929 S    
N4    C52   1.364063 A    
O4    C2    1.298239 A    
C40   H13   1.077244 S    
C53   C54   1.516439 S    
C60   H38   1.110405 S    
C50   C51   1.419979 A    
C49   C54   1.491494 S    
C56   H28   1.111727 S    
C58   H34   1.113915 S    
C18   C33   1.421642 A    
C61   H41   1.119112 S    
C22   H4    1.083527 S    
C30   C31   1.400977 A    
C55   C56   1.529986 S    
C51   H21   1.081570 S    
Cu2   O6    1.966949 S    
C33   C34   1.417596 A    
C17   C30   1.399699 A    
C10   C11   1.400339 A    
C28   C32   1.405715 A    
C36   H6    1.076947 S    
C62   H42   1.111714 S    
C59   H36   1.111071 S    
