data_str_m2_o4_o17_f0_pcu.sym.20
_audit_creation_date              2013-03-05T16:31:29-0500
_audit_creation_method            fapswitch 2.2
_symmetry_space_group_name_H-M    P1
_symmetry_Int_Tables_number       1
_space_group_crystal_system       triclinic
_cell_length_a                    15.074286
_cell_length_b                    10.82901
_cell_length_c                    9.526894
_cell_angle_alpha                 90.113102
_cell_angle_beta                  89.725478
_cell_angle_gamma                 90.741323
_cell_volume                      1555.01544507

loop_
_atom_site_label
_atom_site_type_symbol
_atom_site_description
_atom_site_fract_x
_atom_site_fract_y
_atom_site_fract_z
_atom_type_partial_charge
O1    O     O_R   0.500000 0.319640 0.618810 -0.581025
O2    O     O_R   0.500010 0.319680 0.381230 -0.581641
C1    C     C_R   0.501761 0.262282 0.499320 0.816686
O3    O     O_R   0.370250 0.499950 0.618800 -0.592097
O4    O     O_R   0.370260 0.499990 0.381220 -0.591913
C2    C     C_R   0.328667 0.501452 0.500301 0.798756
Cu1   Cu    Cu3+1 0.500000 0.499980 0.640670 0.925732
Cu2   Cu    Cu3+1 0.500000 0.500020 0.359330 0.931390
O5    O     O_R   0.499990 0.680320 0.618770 -0.585080
O6    O     O_R   0.500000 0.680360 0.381190 -0.581086
O7    O     O_R   0.629740 0.500010 0.618780 -0.588217
O8    O     O_R   0.629750 0.500050 0.381200 -0.583005
C3    C     C_R   0.500901 0.737264 0.500038 0.827973
C4    C     C_R   0.671395 0.500402 0.499820 0.797972
C5    C     C_R   0.815211 0.525467 0.376643 -0.230367
C6    C     C_R   0.768220 0.499777 0.499972 -0.078549
C7    C     C_R   0.813602 0.474015 0.624139 -0.258142
C8    C     C_R   0.906544 0.472576 0.626822 0.093605
C9    C     C_R   0.953595 0.501846 0.501439 0.019039
C10   C     C_R   0.907462 0.528466 0.376857 0.091974
C11   C     C_R   0.953794 0.443614 0.750900 0.155504
C12   C     C_R   0.046626 0.447558 0.747808 -0.268182
C13   C     C_R   0.092801 0.477613 0.624717 0.094380
C14   C     C_R   0.046648 0.504419 0.500186 0.020853
C15   C     C_R   0.093677 0.533516 0.374718 0.092962
C16   C     C_R   0.046448 0.563250 0.250866 0.154064
C17   C     C_R   0.953627 0.559125 0.253928 -0.264632
C18   C     C_R   0.185058 0.479575 0.624614 -0.241922
C19   C     C_R   0.231943 0.504066 0.500799 -0.074684
C20   C     C_R   0.186571 0.530793 0.376966 -0.255153
H1    H     H_    0.220374 0.459521 0.720652 0.146738
H2    H     H_    0.916823 0.581548 0.160003 0.134190
C21   C     C_R   0.446957 0.062430 0.588180 0.048178
C22   C     C_R   0.501942 0.128508 0.495038 -0.149148
C23   C     C_R   0.550244 0.062427 0.390234 0.147056
C24   C     C_R   0.546720 0.933053 0.391768 -0.250397
C25   C     C_R   0.500657 0.869832 0.497807 -0.155698
C26   C     C_R   0.448960 0.935609 0.591756 0.089844
C27   C     C_3   0.442200 0.929949 0.748281 -0.084633
C28   C     C_3   0.434479 0.072078 0.745006 -0.049730
H3    H     H_    0.506866 0.903839 0.794661 0.105436
H4    H     H_    0.492934 0.117782 0.795068 0.122437
C29   C     C_R   0.574596 0.533657 0.073184 0.267261
N1    N     N_R   0.500570 0.500930 0.147930 -0.184462
C30   C     C_R   0.428903 0.456776 0.074779 -0.095511
H5    H     H_    0.370851 0.423015 0.130363 0.141172
C31   C     C_R   0.428652 0.457724 0.926021 -0.107425
H6    H     H_    0.370099 0.426192 0.871044 0.143144
N2    N     N_R   0.500570 0.500890 0.852020 -0.186703
C32   C     C_R   0.574831 0.532627 0.925577 0.261514
C33   C     C_3   0.622550 0.653723 0.918221 -0.509020
C34   C     C_3   0.620959 0.656172 0.077406 -0.517882
H7    H     H_    0.578470 0.730212 0.120979 0.209842
H8    H     H_    0.780013 0.544944 0.280589 0.143114
H9    H     H_    0.584952 0.881248 0.315722 0.147868
C35   C     C_3   0.366504 0.846035 0.807257 -0.344215
C36   C     C_3   0.285035 0.828844 0.713262 -0.781672
H10   H     H_    0.251608 0.917456 0.694515 0.252073
H11   H     H_    0.303944 0.786754 0.611198 0.243335
H12   H     H_    0.236846 0.765373 0.765585 0.227755
H13   H     H_    0.394401 0.752794 0.824175 0.223705
H14   H     H_    0.346195 0.878320 0.913110 0.179167
C37   C     C_3   0.345910 0.130692 0.795054 -0.330260
C38   C     C_3   0.288006 0.183897 0.678773 -0.818847
H15   H     H_    0.323942 0.259315 0.623516 0.255665
H16   H     H_    0.268932 0.111857 0.601343 0.246811
H17   H     H_    0.226531 0.221922 0.725642 0.227900
H18   H     H_    0.304966 0.066615 0.858954 0.205784
H19   H     H_    0.363062 0.207430 0.867666 0.176827
H20   H     H_    0.690435 0.644599 0.873567 0.192070
H21   H     H_    0.582074 0.727081 0.870097 0.207925
H22   H     H_    0.688122 0.651015 0.123976 0.185248
H23   H     H_    0.775409 0.454582 0.717885 0.166565
C39   C     C_3   0.908388 0.406963 0.887512 -0.423366
C40   C     C_3   0.872686 0.274380 0.881607 -0.820685
H24   H     H_    0.839844 0.251001 0.982899 0.236929
H25   H     H_    0.823585 0.262100 0.796214 0.248082
H26   H     H_    0.928120 0.209443 0.864014 0.254064
H27   H     H_    0.955874 0.412270 0.976205 0.200359
H28   H     H_    0.854643 0.472252 0.914181 0.185103
H29   H     H_    0.083417 0.425285 0.841795 0.133211
H30   H     H_    0.224747 0.549668 0.283053 0.165643
C41   C     C_3   0.091868 0.600762 0.114515 -0.422514
C42   C     C_3   0.128414 0.732878 0.121928 -0.821402
H31   H     H_    0.073431 0.798325 0.140589 0.254278
H32   H     H_    0.177740 0.743735 0.207216 0.248738
H33   H     H_    0.161242 0.756891 0.020830 0.237318
H34   H     H_    0.145171 0.535113 0.086820 0.183943
H35   H     H_    0.044253 0.596898 0.025908 0.200316
C43   C     C_3   0.611729 0.123488 0.283200 -0.389544
C44   C     C_3   0.694883 0.177325 0.352434 -0.794356
H36   H     H_    0.737058 0.223886 0.272014 0.236116
H37   H     H_    0.677643 0.245750 0.434333 0.240881
H38   H     H_    0.733586 0.102362 0.401459 0.243140
H39   H     H_    0.633994 0.055111 0.203650 0.182937
H40   H     H_    0.577058 0.194736 0.221748 0.222594

loop_
_geom_bond_atom_site_label_1
_geom_bond_atom_site_label_2
_geom_bond_distance
_ccdc_geom_bond_type
C16   C41   1.519067 S    
C8    C11   1.420668 A    
C23   C24   1.401413 A    
C42   H33   1.110527 S    
C40   H24   1.110653 S    
C36   H10   1.104825 S    
Cu1   Cu2   2.680297 S    
C31   N2    1.368096 A    
C30   H5    1.080697 S    
N1    C30   1.368922 A    
Cu1   O7    1.965826 S    
C38   H17   1.110340 S    
C16   C17   1.399516 A    
C19   C20   1.399124 A    
C28   C37   1.558014 S    
C41   C42   1.528048 S    
C24   C25   1.398254 A    
C42   H32   1.109075 S    
C22   C23   1.429287 A    
O4    C2    1.293740 A    
O7    C4    1.292994 A    
C29   C34   1.492073 S    
C36   H11   1.110594 S    
C5    C6    1.395661 A    
C35   C36   1.532542 S    
C8    C9    1.420540 A    
O5    C3    1.289314 A    
C27   C35   1.553236 S    
C6    C7    1.399682 A    
C13   C14   1.410791 A    
C33   H20   1.111850 S    
C3    C25   1.435836 S    
C28   H4    1.113862 S    
C41   H34   1.110232 S    
C39   H28   1.110375 S    
C11   C12   1.399647 A    
C7    H23   1.079854 S    
C33   H21   1.109150 S    
O3    Cu1   1.967945 S    
C12   C13   1.397646 A    
C7    C8    1.401685 A    
C30   C31   1.417276 A    
C5    C10   1.390594 A    
C41   H35   1.111048 S    
C21   C28   1.508549 S    
C39   C40   1.527791 S    
C33   C34   1.516794 S    
C5    H8    1.082453 S    
C37   H19   1.108981 S    
C43   H39   1.112232 S    
C14   C15   1.420645 A    
Cu1   N2    2.013573 S    
O3    C2    1.294135 A    
C27   C28   1.545393 S    
C36   H12   1.110650 S    
C1    C22   1.449168 S    
C32   C33   1.489108 S    
C15   C16   1.420644 A    
C11   C39   1.518660 S    
O1    C1    1.296046 A    
C38   H16   1.108768 S    
C20   H30   1.079900 S    
C29   N1    1.364202 A    
C12   H29   1.084703 S    
C25   C26   1.385972 A    
C34   H22   1.109437 S    
C44   H37   1.107294 S    
C31   H6    1.079780 S    
Cu2   O8    1.967943 S    
C21   C22   1.402334 A    
C13   C18   1.390597 A    
C42   H31   1.110917 S    
C40   H25   1.109127 S    
O8    C4    1.295339 A    
C39   H27   1.110954 S    
C35   H14   1.109654 S    
C44   H36   1.110835 S    
C34   H7    1.111235 S    
C15   C20   1.401271 A    
Cu1   O5    1.964427 S    
C37   H18   1.104544 S    
C18   C19   1.396293 A    
C17   H2    1.084695 S    
O1    Cu1   1.963568 S    
C18   H1    1.084504 S    
O2    Cu2   1.964427 S    
Cu2   N1    2.014006 S    
O6    C3    1.288048 A    
O4    Cu2   1.965829 S    
C29   C32   1.406242 A    
C43   H40   1.107397 S    
C10   C17   1.397787 A    
C21   C26   1.374562 A    
C38   H15   1.106845 S    
C9    C10   1.410610 A    
O2    C1    1.286935 A    
C24   H9    1.083737 S    
C44   H38   1.110800 S    
C43   C44   1.527632 S    
C26   C27   1.495506 S    
C9    C14   1.402615 A    
C4    C6    1.459686 S    
C40   H26   1.110970 S    
C37   C38   1.531617 S    
C23   C43   1.521120 S    
C2    C19   1.458659 S    
C27   H3    1.112265 S    
Cu2   O6    1.963568 S    
N2    C32   1.363424 A    
C35   H13   1.111124 S    
