data_str_m2_o4_o24_f0_pcu.sym.214
_audit_creation_date              2012-12-10T19:04:15-0500
_audit_creation_method            fapswitch 2.2
_symmetry_space_group_name_H-M    P1
_symmetry_Int_Tables_number       1
_space_group_crystal_system       triclinic
_cell_length_a                    10.651574
_cell_length_b                    10.871812
_cell_length_c                    9.669636
_cell_angle_alpha                 88.9334
_cell_angle_beta                  89.661078
_cell_angle_gamma                 91.67372
_cell_volume                      1119.06727869

loop_
_atom_site_label
_atom_site_type_symbol
_atom_type_description
_atom_site_fract_x
_atom_site_fract_y
_atom_site_fract_z
_atom_type_partial_charge
C1    C     C_R   0.503316 0.262867 0.500691 0.779801
C2    C     C_3   0.962038 0.598875 0.427098 -0.165172
C3    C     C_3   0.041249 0.494101 0.368166 -0.229162
C4    C     C_3   0.123051 0.497993 0.499028 -0.045645
C5    C     C_R   0.528925 0.058698 0.617891 -0.007127
C6    C     C_R   0.511717 0.129803 0.498900 -0.086452
C7    C     C_R   0.504137 0.066502 0.372330 -0.220907
C8    C     C_R   0.502791 0.937389 0.370481 -0.200218
C9    C     C_R   0.512231 0.869222 0.495062 -0.093597
C10   C     C_R   0.531390 0.934499 0.614770 -0.079186
C11   C     C_3   0.541254 0.919034 0.768436 0.301538
C12   C     C_R   0.259837 0.498066 0.500034 0.813871
C13   C     C_3   0.537341 0.061040 0.772048 0.303830
C14   C     C_R   0.595664 0.555957 0.070594 0.130189
C15   C     C_R   0.399205 0.454669 0.075537 0.454518
C16   C     C_R   0.399498 0.454548 0.927471 0.450272
C17   C     C_R   0.593336 0.559456 0.924651 0.170093
C18   C     C_3   0.729443 0.537808 0.912623 -0.448587
C19   C     C_3   0.733662 0.528825 0.069511 -0.040728
C20   C     C_R   0.503165 0.736748 0.498637 0.776995
C21   C     C_R   0.740312 0.500945 0.499990 0.796902
C22   C     C_3   0.035953 0.402563 0.570574 0.545536
C23   C     C_3   0.953906 0.396098 0.441040 -0.278160
C24   C     C_3   0.877259 0.500892 0.500787 -0.084095
C25   C     C_3   0.958656 0.505577 0.632373 -0.208884
C26   C     C_3   0.045357 0.601418 0.557100 0.166187
Cu1   Cu    Cu3+1 0.499990 0.499980 0.640670 0.989172
Cu2   Cu    Cu3+1 0.500010 0.500020 0.359330 0.958513
H1    H     H_    0.916119 0.309134 0.397011 0.136767
H2    H     H_    0.450469 0.094718 0.819365 -0.003704
H3    H     H_    0.747395 0.450290 0.859286 0.217085
H4    H     H_    0.781460 0.620116 0.869955 0.183031
H5    H     H_    0.792486 0.603757 0.115163 0.167048
H6    H     H_    0.930137 0.510600 0.741957 0.139408
H7    H     H_    0.928658 0.680310 0.368579 0.135072
H8    H     H_    0.075546 0.489950 0.259882 0.212922
H9    H     H_    0.497335 0.115530 0.274766 0.142233
H10   H     H_    0.492273 0.891843 0.272378 0.161673
H11   H     H_    0.455578 0.873571 0.814449 0.054409
N1    N     N_R   0.500800 0.500930 0.147930 -0.256150
N2    N     N_R   0.500800 0.500890 0.852020 -0.252831
O1    O     O_R   0.500000 0.319640 0.618810 -0.567563
O2    O     O_R   0.500010 0.319680 0.381230 -0.598575
O3    O     O_R   0.316850 0.499950 0.618770 -0.519809
O4    O     O_R   0.316860 0.499990 0.381190 -0.540142
O5    O     O_R   0.499990 0.680320 0.618770 -0.570277
O6    O     O_R   0.500000 0.680360 0.381190 -0.584428
O7    O     O_R   0.683140 0.500010 0.618810 -0.588477
O8    O     O_R   0.683150 0.500050 0.381230 -0.576218
O9    O     O_3   0.653096 0.869731 0.825426 -0.556534
C27   C     C_3   0.754919 0.864986 0.731400 -0.223205
H12   H     H_    0.775968 0.955639 0.680119 0.183617
H13   H     H_    0.737334 0.792698 0.653629 0.151056
H14   H     H_    0.839760 0.839725 0.790078 0.150705
O10   O     O_3   0.650753 0.118373 0.814700 -0.545705
C28   C     C_3   0.647103 0.131187 0.959291 -0.288587
H15   H     H_    0.620535 0.043286 0.014362 0.175725
H16   H     H_    0.580921 0.203861 0.987656 0.130625
H17   H     H_    0.742439 0.158546 0.994509 0.176747
O11   O     O_3   0.289459 0.418816 0.143858 -0.553401
C29   C     C_3   0.289908 0.292482 0.181231 -0.229127
H18   H     H_    0.273127 0.281511 0.294078 0.189266
H19   H     H_    0.377790 0.245244 0.154480 0.100827
H20   H     H_    0.209964 0.244310 0.130540 0.137321
O12   O     O_3   0.291427 0.416568 0.860854 -0.532699
C30   C     C_3   0.285880 0.287133 0.852671 -0.139720
H21   H     H_    0.300977 0.259828 0.744275 0.202183
H22   H     H_    0.190599 0.253711 0.884370 0.171930
H23   H     H_    0.353651 0.239059 0.919635 0.052314
C31   C     C_3   0.767603 0.399318 0.119979 -0.785052
H24   H     H_    0.819336 0.406209 0.217192 0.249589
H25   H     H_    0.683242 0.338875 0.137542 0.231136
H26   H     H_    0.832664 0.355700 0.046729 0.206489
O13   O     O_3   0.079791 0.298119 0.641525 -0.608194
C32   C     C_3   0.977281 0.232127 0.702913 -0.327241
H27   H     H_    0.905744 0.204354 0.625263 0.175898
H28   H     H_    0.933574 0.285928 0.786180 0.175007
H29   H     H_    0.012244 0.146451 0.751182 0.173152
C33   C     C_3   0.099509 0.717881 0.621345 -0.884032
H30   H     H_    0.022234 0.778972 0.649494 0.217703
H31   H     H_    0.153077 0.693678 0.715619 0.254199
H32   H     H_    0.163197 0.766864 0.546078 0.227039

loop_
_geom_bond_atom_site_label_1
_geom_bond_atom_site_label_2
_ccdc_geom_bond_type
C2    H7    S    
Cu1   O7    S    
C30   H22   S    
O10   C28   S    
Cu2   O6    S    
C15   O11   S    
C3    C23   S    
C21   O8    A    
C7    C8    A    
C23   H1    S    
C5    C6    A    
C30   H23   S    
Cu2   N1    S    
C15   C16   A    
C28   H15   S    
C18   C19   S    
C29   H19   S    
Cu1   O3    S    
C1    O2    A    
C8    C9    A    
C22   C25   S    
C23   C24   S    
C31   H24   S    
C4    C12   S    
C9    C10   A    
C5    C13   S    
C25   H6    S    
C21   O7    A    
C30   H21   S    
C14   C17   A    
C8    H10   S    
O9    C27   S    
Cu2   O4    S    
O13   C32   S    
C1    C6    S    
C13   H2    S    
C24   C25   S    
C19   H5    S    
C33   H31   S    
C25   C26   S    
C27   H12   S    
O11   C29   S    
C27   H13   S    
C29   H20   S    
C32   H27   S    
C4    C22   S    
Cu2   O8    S    
Cu1   N2    S    
C9    C20   S    
C31   H26   S    
C17   C18   S    
C7    H9    S    
C2    C26   S    
C11   H11   S    
C32   H28   S    
Cu1   O5    S    
C2    C24   S    
C18   H4    S    
C22   O13   S    
C3    C4    S    
C14   C19   S    
C12   O4    A    
C33   H32   S    
C4    C26   S    
C6    C7    A    
C18   H3    S    
Cu2   O2    S    
C26   C33   S    
C28   H17   S    
C27   H14   S    
C2    C3    S    
C5    C10   A    
C12   O3    A    
C11   O9    S    
C11   C13   S    
Cu1   O1    S    
C3    H8    S    
C28   H16   S    
C29   H18   S    
C32   H29   S    
C17   N2    A    
C15   N1    A    
C20   O6    A    
C10   C11   S    
C14   N1    A    
C33   H30   S    
C1    O1    A    
O12   C30   S    
C21   C24   S    
Cu1   Cu2   S    
C22   C23   S    
C19   C31   S    
C31   H25   S    
C16   O12   S    
C16   N2    A    
C20   O5    A    
C13   O10   S    
