data_str_m2_o5_o28_f0_pcu.sym.94
_audit_creation_date              2013-03-05T16:35:54-0500
_audit_creation_method            fapswitch 2.2
_symmetry_space_group_name_H-M    P1
_symmetry_Int_Tables_number       1
_space_group_crystal_system       triclinic
_cell_length_a                    23.533864
_cell_length_b                    9.099854
_cell_length_c                    7.788925
_cell_angle_alpha                 90.000195
_cell_angle_beta                  89.999311
_cell_angle_gamma                 89.971922
_cell_volume                      1668.03490234

loop_
_atom_site_label
_atom_site_type_symbol
_atom_site_description
_atom_site_fract_x
_atom_site_fract_y
_atom_site_fract_z
_atom_type_partial_charge
O1    O     O_R   0.500000 0.288390 0.642760 -0.575717
O2    O     O_R   0.500000 0.711610 0.357240 -0.575934
O3    O     O_R   0.500000 0.711610 0.642760 -0.575713
O4    O     O_R   0.500000 0.288390 0.357240 -0.575940
H1    H     H_    0.949242 0.128599 0.493094 0.184667
H2    H     H_    0.050759 0.871341 0.493132 0.184649
H3    H     H_    0.947494 0.869857 0.524127 0.187450
H4    H     H_    0.052506 0.130082 0.524103 0.187469
C1    C     C_R   0.500002 0.220022 0.500000 0.845942
C2    C     C_R   0.499998 0.779978 0.500000 0.845951
O5    O     O_R   0.417880 0.500000 0.642820 -0.577915
O6    O     O_R   0.582120 0.500000 0.357180 -0.578130
O7    O     O_R   0.582120 0.500000 0.642820 -0.577920
O8    O     O_R   0.417880 0.500000 0.357180 -0.578118
C3    C     C_R   0.208927 0.502463 0.504112 0.075305
C4    C     C_R   0.791074 0.497480 0.504092 0.075171
C5    C     C_R   0.390743 0.500339 0.500045 0.851412
C6    C     C_R   0.609257 0.499660 0.500043 0.851409
Cu1   Cu    Cu3+1 0.500000 0.500000 0.669080 1.037087
Cu2   Cu    Cu3+1 0.500000 0.500000 0.330920 1.036288
C7    C     C_R   0.299097 0.567774 0.636211 -0.232401
C8    C     C_R   0.700900 0.432193 0.636194 -0.232420
C9    C     C_R   0.298168 0.436274 0.366368 -0.241552
C10   C     C_R   0.701834 0.563703 0.366362 -0.241674
H5    H     H_    0.322684 0.619999 0.738873 0.212546
H6    H     H_    0.677310 0.379965 0.738851 0.212509
H7    H     H_    0.321051 0.383539 0.262562 0.207983
H8    H     H_    0.678953 0.616451 0.262563 0.207982
C11   C     C_R   0.328411 0.501604 0.500609 -0.180707
C12   C     C_R   0.671589 0.498380 0.500602 -0.180797
C13   C     C_R   0.880568 0.627890 0.532164 0.668985
C14   C     C_R   0.119432 0.372050 0.532174 0.668835
C15   C     C_R   0.881221 0.368747 0.482909 0.675976
C16   C     C_R   0.118780 0.631193 0.482928 0.675704
N1    N     N_R   0.852228 0.498005 0.506599 -0.435752
N2    N     N_R   0.147772 0.501935 0.506616 -0.435810
C17   C     C_R   0.940592 0.365629 0.497145 -0.014172
C18   C     C_R   0.059409 0.634311 0.497162 -0.014101
C19   C     C_R   0.939963 0.632614 0.519944 -0.033599
C20   C     C_R   0.060037 0.367326 0.519943 -0.033945
C21   C     C_R   0.970089 0.499542 0.508765 -0.010057
C22   C     C_R   0.029911 0.500398 0.508769 -0.010020
C23   C     C_R   0.971082 0.232942 0.499943 -0.124602
C24   C     C_R   0.028919 0.766998 0.499968 -0.124623
C25   C     C_R   0.969837 0.766152 0.517575 -0.139869
C26   C     C_R   0.030163 0.233788 0.517558 -0.140133
C27   C     C_1   0.500001 0.065361 0.500000 -0.144512
C28   C     C_1   0.499999 0.934639 0.500000 -0.144509
C29   C     C_R   0.239780 0.570194 0.639269 0.437331
C30   C     C_R   0.760217 0.429751 0.639247 0.437333
C31   C     C_R   0.238771 0.434626 0.366873 0.412585
C32   C     C_R   0.761232 0.565330 0.366857 0.413309
N3    N     N_1   0.500000 0.500000 0.076820 -0.035901
N4    N     N_1   0.500000 0.500000 0.923180 -0.035872
O9    O     O_2   0.851368 0.751755 0.567912 -0.451148
O10   O     O_2   0.148630 0.248186 0.567929 -0.450916
O11   O     O_2   0.852711 0.244078 0.446267 -0.470190
O12   O     O_2   0.147290 0.755861 0.446284 -0.470212
S1    S     S_3+6 0.206351 0.661367 0.813469 0.084989
O13   O     O_2   0.196079 0.819041 0.765319 -0.203679
O14   O     O_2   0.150613 0.589759 0.856117 -0.263431
O15   O     O_3   0.248857 0.657597 0.987058 -0.500080
H9    H     H_    0.225719 0.699931 0.081124 0.400966
S2    S     S_3+6 0.793637 0.338524 0.813422 0.084662
O16   O     O_2   0.803853 0.180828 0.765247 -0.203984
O17   O     O_2   0.849401 0.410005 0.856044 -0.264104
O18   O     O_3   0.751147 0.342390 0.987047 -0.500024
H10   H     H_    0.774138 0.298977 0.080805 0.400834
S3    S     S_3+6 0.203798 0.342655 0.195943 0.072997
O19   O     O_2   0.239708 0.347771 0.036487 -0.224251
O20   O     O_2   0.195259 0.184578 0.245469 -0.217276
O21   O     O_3   0.140314 0.419876 0.154897 -0.514077
H11   H     H_    0.119836 0.347182 0.083238 0.389864
S4    S     S_3+6 0.796205 0.657304 0.195926 0.073118
O22   O     O_2   0.760293 0.652143 0.036477 -0.224707
O23   O     O_2   0.804737 0.815388 0.245419 -0.216989
O24   O     O_3   0.859698 0.580136 0.154889 -0.514284
H12   H     H_    0.879852 0.651942 0.081258 0.390456

loop_
_geom_bond_atom_site_label_1
_geom_bond_atom_site_label_2
_geom_bond_distance
_ccdc_geom_bond_type
C10   C32   1.397951 A    
C9    C11   1.397737 A    
C30   S2    1.774151 S    
C21   C22   1.407880 A    
Cu1   Cu2   2.633904 S    
C7    C29   1.396326 A    
C19   C21   1.405610 A    
O24   H12   0.990516 S    
C20   C26   1.404309 A    
O5    Cu1   1.943399 S    
S4    O23   1.502868 D    
O7    C6    1.282401 A    
H3    C25   1.081283 S    
C4    C30   1.419797 A    
C18   C22   1.405651 A    
C32   S4    1.775136 S    
C4    N1    1.439340 S    
C5    C11   1.466971 S    
S3    O20   1.502896 D    
S4    O24   1.681351 S    
O3    Cu1   1.936503 S    
C6    C12   1.466969 S    
C9    H7    1.083402 S    
C10   H8    1.083406 S    
C19   C25   1.404310 A    
C20   C22   1.405609 A    
H1    C23   1.081225 S    
S1    O13   1.502476 D    
H2    C24   1.081224 S    
O8    C5    1.282998 A    
C10   C12   1.397733 A    
S1    O14   1.502145 D    
O1    Cu1   1.936502 S    
S4    O22   1.502988 D    
O7    Cu1   1.943392 S    
O2    Cu2   1.936501 S    
O18   H10   0.990921 S    
S2    O18   1.682248 S    
O8    Cu2   1.943394 S    
O1    C1    1.274156 A    
O21   H11   0.990795 S    
N3    N4    1.196691 T    
C7    C11   1.397707 A    
C15   C17   1.401894 A    
S2    O17   1.502132 D    
C17   C23   1.404417 A    
S3    O21   1.681397 S    
C18   C24   1.404415 A    
O15   H9    0.990707 S    
C9    C31   1.397946 A    
C27   C28   1.189554 T    
O6    Cu2   1.943397 S    
Cu1   N4    1.979165 S    
C1    C27   1.407393 S    
C3    C31   1.420052 A    
C2    C28   1.407393 S    
C13   N1    1.371936 A    
O2    C2    1.274158 A    
C14   N2    1.371935 A    
C3    N2    1.439346 S    
C14   C20   1.401718 A    
C24   C25   1.397203 A    
C7    H5    1.083353 S    
O5    C5    1.282401 A    
S1    O15   1.682249 S    
C15   O11   1.348854 S    
C8    C12   1.397701 A    
C16   C18   1.401890 A    
C4    C32   1.420061 A    
Cu2   N3    1.979165 S    
C29   S1    1.774143 S    
C8    C30   1.396327 A    
S2    O16   1.502496 D    
O3    C2    1.274158 A    
C15   N1    1.371979 A    
C13   C19   1.401719 A    
C16   N2    1.371977 A    
C3    C29   1.419786 A    
C17   C21   1.405652 A    
S3    O19   1.502978 D    
C23   C26   1.397205 A    
H4    C26   1.081282 S    
O4    Cu2   1.936504 S    
C8    H6    1.083355 S    
O6    C6    1.282998 A    
C16   O12   1.348851 S    
C31   S3    1.775121 S    
C13   O9    1.348873 S    
O4    C1    1.274159 A    
C14   O10   1.348871 S    
