data_str_m2_o4_o5_f0_pcu.sym.120
_audit_creation_date              2012-12-10T19:08:04-0500
_audit_creation_method            fapswitch 2.2
_symmetry_space_group_name_H-M    P1
_symmetry_Int_Tables_number       1
_space_group_crystal_system       triclinic
_cell_length_a                    9.050577
_cell_length_b                    10.876237
_cell_length_c                    9.61911
_cell_angle_alpha                 91.038013
_cell_angle_beta                  89.667653
_cell_angle_gamma                 91.267857
_cell_volume                      946.467863482

loop_
_atom_site_label
_atom_site_type_symbol
_atom_type_description
_atom_site_fract_x
_atom_site_fract_y
_atom_site_fract_z
_atom_type_partial_charge
C1    C     C_R   0.503857 0.262448 0.498228 0.815376
C2    C     C_R   0.465601 0.931989 0.368735 0.428057
C3    C     C_R   0.470892 0.870140 0.496788 -0.263501
C4    C     C_R   0.455278 0.940609 0.617554 0.116390
C5    C     C_3   0.527015 0.936047 0.756020 -0.196712
C6    C     C_3   0.531601 0.076064 0.755406 -0.423160
C7    C     C_R   0.622368 0.536506 0.072979 0.237321
C8    C     C_R   0.389606 0.441966 0.074395 -0.083185
C9    C     C_R   0.382812 0.451488 0.925664 0.472102
C10   C     C_R   0.623907 0.533597 0.926946 0.162759
C11   C     C_3   0.709541 0.652050 0.922624 -0.497742
C12   C     C_R   0.220963 0.499995 0.500167 0.852624
C13   C     C_3   0.705724 0.655661 0.080902 -0.457704
C14   C     C_R   0.491398 0.737236 0.500281 0.825833
C15   C     C_R   0.779059 0.500389 0.499764 0.827253
C16   C     C_1   0.065679 0.500390 0.500066 -0.162577
C17   C     C_1   0.934371 0.500523 0.499506 -0.183633
C18   C     C_R   0.460594 0.066913 0.615376 0.095225
C19   C     C_R   0.495326 0.128409 0.493127 -0.260669
C20   C     C_R   0.499319 0.059233 0.365885 -0.123976
Cu1   Cu    Cu3+1 0.499990 0.499980 0.640670 0.984097
Cu2   Cu    Cu3+1 0.500010 0.500020 0.359330 0.958596
H1    H     H_    0.645994 0.725161 0.875100 0.200346
H2    H     H_    0.816590 0.646081 0.128136 0.198162
H3    H     H_    0.638888 0.731551 0.124765 0.249400
H4    H     H_    0.638580 0.895744 0.750438 0.121425
H5    H     H_    0.458233 0.120718 0.833654 0.232347
H6    H     H_    0.645798 0.115819 0.750970 0.183527
H7    H     H_    0.822500 0.640840 0.879020 0.197405
N1    N     N_R   0.500920 0.500930 0.147930 -0.242668
N2    N     N_R   0.500930 0.500890 0.852020 -0.221447
O1    O     O_R   0.500000 0.319640 0.618810 -0.543343
O2    O     O_R   0.500020 0.319680 0.381230 -0.627992
O3    O     O_R   0.288380 0.499980 0.618770 -0.545442
O4    O     O_R   0.288400 0.500020 0.381190 -0.567165
O5    O     O_R   0.499980 0.680320 0.618770 -0.577939
O6    O     O_R   0.500000 0.680360 0.381190 -0.535559
O7    O     O_R   0.711600 0.499980 0.618810 -0.587665
O8    O     O_R   0.711620 0.500020 0.381230 -0.574032
C21   C     C_2   0.560004 0.112375 0.235285 0.374325
H8    H     H_    0.643825 0.185118 0.239786 0.095809
O9    O     O_2   0.520285 0.074329 0.121187 -0.591221
O10   O     O_3   0.436248 0.867299 0.246616 -0.561095
C22   C     C_3   0.282879 0.872765 0.218317 0.095914
H9    H     H_    0.264573 0.946381 0.142134 0.192547
H10   H     H_    0.212471 0.892321 0.311746 0.110404
C23   C     C_3   0.228586 0.750459 0.155665 -0.739700
H11   H     H_    0.219645 0.680868 0.237932 0.256283
H12   H     H_    0.117653 0.761018 0.109179 0.199185
H13   H     H_    0.306047 0.717124 0.074308 0.254923
C24   C     C_2   0.427326 0.883640 0.866669 0.403207
H14   H     H_    0.468199 0.879143 0.971734 0.148878
O11   O     O_2   0.303068 0.844206 0.839842 -0.562631
C25   C     C_2   0.291622 0.351918 0.144987 0.491786
H15   H     H_    0.335781 0.265792 0.177802 0.087674
O12   O     O_2   0.161545 0.372108 0.167432 -0.583185
O13   O     O_3   0.265242 0.397348 0.854545 -0.556199
C26   C     C_3   0.134092 0.464316 0.878840 0.110221
H16   H     H_    0.125696 0.540687 0.804874 0.167183
H17   H     H_    0.126427 0.509007 0.983250 0.156304
C27   C     C_3   0.001508 0.377499 0.858370 -0.739082
H18   H     H_    0.005365 0.301368 0.933493 0.265721
H19   H     H_    0.897701 0.427724 0.875065 0.200019
H20   H     H_    0.002074 0.338017 0.751113 0.240595

loop_
_geom_bond_atom_site_label_1
_geom_bond_atom_site_label_2
_ccdc_geom_bond_type
C8    C9    A    
C7    C10   A    
O10   C22   S    
C15   O7    A    
C6    H5    S    
C2    C20   A    
C27   H20   S    
C11   C13   S    
C19   C20   A    
C22   C23   S    
C2    O10   S    
C4    C18   A    
C26   C27   S    
C21   O9    D    
C2    C3    A    
C8    N1    A    
C23   H12   S    
Cu1   O5    S    
Cu1   Cu2   S    
C12   O4    A    
Cu1   O7    S    
Cu2   O4    S    
Cu1   N2    S    
C15   O8    A    
O13   C26   S    
C27   H18   S    
C3    C14   S    
C6    C18   S    
Cu2   O8    S    
C11   H1    S    
C21   H8    S    
C22   H10   S    
C23   H13   S    
C9    O13   S    
C1    O1    A    
C14   O5    A    
C5    C6    S    
C20   C21   S    
Cu1   O1    S    
C25   O12   D    
C1    C19   S    
C16   C17   T    
C10   C11   S    
C1    O2    A    
C26   H17   S    
C24   H14   S    
C23   H11   S    
C12   C16   S    
C7    C13   S    
C22   H9    S    
C11   H7    S    
C15   C17   S    
C18   C19   A    
C8    C25   S    
C7    N1    A    
Cu2   O2    S    
C9    N2    A    
C25   H15   S    
C5    C24   S    
C14   O6    A    
Cu1   O3    S    
Cu2   N1    S    
C24   O11   D    
C26   H16   S    
Cu2   O6    S    
C12   O3    A    
C10   N2    A    
C27   H19   S    
C6    H6    S    
C3    C4    A    
C5    H4    S    
C13   H2    S    
C4    C5    S    
C13   H3    S    
