data_str_m2_o4_o18_f0_pcu.sym.100
_audit_creation_date              2012-12-10T19:01:18-0500
_audit_creation_method            fapswitch 2.2
_symmetry_space_group_name_H-M    P1
_symmetry_Int_Tables_number       1
_space_group_crystal_system       triclinic
_cell_length_a                    9.537183
_cell_length_b                    10.850334
_cell_length_c                    15.435923
_cell_angle_alpha                 89.845162
_cell_angle_beta                  74.722642
_cell_angle_gamma                 89.696251
_cell_volume                      1540.86406075

loop_
_atom_site_label
_atom_site_type_symbol
_atom_type_description
_atom_site_fract_x
_atom_site_fract_y
_atom_site_fract_z
_atom_type_partial_charge
C1    C     C_R   0.000421 0.262503 0.499319 0.830671
C2    C     C_R   0.673733 0.495087 0.908995 0.090049
C3    C     C_R   0.771018 0.530658 0.959486 0.131169
C4    C     C_R   0.523955 0.474700 0.953787 0.080760
C5    C     C_R   0.474832 0.495366 0.048149 0.066087
C6    C     C_R   0.578203 0.524016 0.095872 -0.219096
C7    C     C_R   0.722802 0.542044 0.052214 -0.228753
C8    C     C_R   0.421571 0.434368 0.908115 -0.231586
C9    C     C_R   0.276657 0.415257 0.953327 -0.257651
C10   C     C_R   0.226818 0.439251 0.044888 0.169148
C11   C     C_R   0.324445 0.483116 0.092556 0.093920
C12   C     C_R   0.918852 0.503461 0.672584 0.788222
C13   C     C_R   0.080036 0.419591 0.089670 -0.216516
C14   C     C_R   0.029595 0.441770 0.181721 -0.200800
C15   C     C_R   0.267907 0.513556 0.183512 -0.247597
C16   C     C_R   0.130571 0.062790 0.474354 0.133197
C17   C     C_R   0.000903 0.129649 0.493815 -0.164446
C18   C     C_R   0.869308 0.066554 0.504961 -0.314688
C19   C     C_R   0.866201 0.938077 0.509008 0.425545
C20   C     C_R   0.998096 0.871356 0.496294 -0.211010
C21   C     C_R   0.129308 0.935781 0.475035 0.066476
C22   C     C_3   0.253654 0.929133 0.517070 -0.447738
C23   C     C_R   0.999122 0.737773 0.500562 0.817350
C24   C     C_3   0.254808 0.068930 0.516116 -0.451592
C25   C     C_R   0.589488 0.595629 0.462401 0.313184
C26   C     C_R   0.555487 0.412904 0.545645 -0.096293
C27   C     C_R   0.406511 0.412956 0.545704 -0.094609
C28   C     C_R   0.442149 0.595414 0.462103 0.259927
C29   C     C_3   0.479418 0.633899 0.366040 -0.529927
C30   C     C_3   0.637711 0.637033 0.367309 -0.489891
C31   C     C_R   0.081147 0.498636 0.327675 0.799022
C32   C     C_R   0.875074 0.511571 0.771957 -0.077730
C33   C     C_R   0.124574 0.487371 0.229277 -0.049547
C34   C     C_R   0.916345 0.556428 0.917277 -0.247261
C35   C     C_R   0.969914 0.550324 0.823916 0.147308
C36   C     C_R   0.729690 0.483832 0.815453 -0.299584
Cu1   Cu    Cu3+1 0.140670 0.499980 0.500000 0.933478
Cu2   Cu    Cu3+1 0.859330 0.500020 0.500000 0.945140
H1    H     H_    0.797419 0.566228 0.091627 0.149687
H2    H     H_    0.005128 0.384342 0.053865 0.143506
H3    H     H_    0.767171 0.116142 0.516299 0.173518
H4    H     H_    0.222152 0.889721 0.585903 0.194277
H5    H     H_    0.352634 0.887882 0.471471 0.204661
H6    H     H_    0.223907 0.110266 0.584422 0.186026
H7    H     H_    0.353968 0.108117 0.469576 0.203017
H8    H     H_    0.596501 0.341044 0.581195 0.136481
H9    H     H_    0.335884 0.341280 0.581356 0.133144
H10   H     H_    0.457549 0.559318 0.322781 0.209673
H11   H     H_    0.332652 0.559564 0.220486 0.137352
H12   H     H_    0.434223 0.725865 0.356177 0.198128
H13   H     H_    0.705738 0.567401 0.322236 0.204937
H14   H     H_    0.683439 0.731648 0.361281 0.218956
H15   H     H_    0.917610 0.421203 0.215781 0.150538
H16   H     H_    0.202662 0.382297 0.916004 0.144195
H17   H     H_    0.987455 0.586242 0.957565 0.142875
H18   H     H_    0.661140 0.455500 0.774049 0.157257
H19   H     H_    0.551935 0.530762 0.167781 0.141386
H20   H     H_    0.449538 0.414130 0.837425 0.136542
N1    N     N_R   0.648210 0.500930 0.499430 -0.194662
N2    N     N_R   0.352300 0.500890 0.499430 -0.180967
O1    O     O_R   0.118810 0.319640 0.500000 -0.581188
O2    O     O_R   0.881230 0.319680 0.499990 -0.589400
O3    O     O_R   0.055580 0.499970 0.629840 -0.582181
O4    O     O_R   0.818000 0.500010 0.629830 -0.592606
O5    O     O_R   0.118770 0.680320 0.500010 -0.586353
O6    O     O_R   0.881190 0.680360 0.500000 -0.528428
O7    O     O_R   0.182000 0.499990 0.370170 -0.578620
O8    O     O_R   0.944420 0.500030 0.370160 -0.586804
O9    O     O_3   0.733576 0.878675 0.528652 -0.568460
C37   C     C_3   0.670146 0.885235 0.622257 0.087645
H21   H     H_    0.623202 0.978667 0.640606 0.134118
H22   H     H_    0.750056 0.864050 0.661762 0.125086
C38   C     C_3   0.548705 0.791286 0.648467 -0.790326
H23   H     H_    0.594256 0.696549 0.637122 0.259827
H24   H     H_    0.491588 0.801597 0.720716 0.196313
H25   H     H_    0.470032 0.805526 0.607624 0.235242
C39   C     C_3   0.124462 0.593812 0.784075 -0.380283
C40   C     C_3   0.126074 0.720974 0.741225 -0.811194
H26   H     H_    0.239914 0.749270 0.711381 0.231136
H27   H     H_    0.068095 0.721010 0.687730 0.249497
H28   H     H_    0.073512 0.789668 0.793014 0.241255
H29   H     H_    0.183400 0.602033 0.837068 0.195408
H30   H     H_    0.188740 0.525786 0.736133 0.215453

loop_
_geom_bond_atom_site_label_1
_geom_bond_atom_site_label_2
_ccdc_geom_bond_type
C8    C9    A    
C30   H13   S    
C16   C21   A    
C38   H23   S    
C19   C20   A    
C4    C8    A    
C1    O2    A    
C14   C33   A    
C39   C40   S    
C25   C28   A    
C31   O7    A    
C26   C27   A    
C29   C30   S    
C24   H7    S    
C32   C36   A    
C23   O6    A    
C28   C29   S    
C5    C11   A    
C3    C7    A    
C27   N2    A    
C5    C6    A    
C12   O4    A    
C40   H27   S    
C39   H30   S    
C27   H9    S    
C34   C35   A    
C13   H2    S    
C8    H20   S    
C11   C15   A    
Cu2   O6    S    
C16   C17   A    
Cu1   O5    S    
C31   C33   S    
C37   H21   S    
C26   N1    A    
C34   H17   S    
C16   C24   S    
C13   C14   A    
C12   C32   S    
C38   H24   S    
C6    H19   S    
Cu1   O3    S    
Cu2   O4    S    
C29   H12   S    
C28   N2    A    
C31   O8    A    
C29   H10   S    
C32   C35   A    
C18   H3    S    
C12   O3    A    
C40   H26   S    
C18   C19   A    
C3    C34   A    
C35   C39   S    
C2    C4    A    
Cu1   Cu2   S    
C36   H18   S    
C22   H5    S    
C20   C23   S    
C37   C38   S    
C17   C18   A    
Cu2   O8    S    
C24   H6    S    
C38   H25   S    
C22   C24   S    
C19   O9    S    
C9    C10   A    
C2    C36   A    
C25   C30   S    
C30   H14   S    
C4    C5    A    
C10   C13   A    
C1    O1    A    
Cu1   O1    S    
C6    C7    A    
C1    C17   S    
C23   O5    A    
C2    C3    A    
C40   H28   S    
C22   H4    S    
C39   H29   S    
Cu1   O7    S    
C15   H11   S    
O9    C37   S    
Cu1   N2    S    
C10   C11   A    
C26   H8    S    
Cu2   N1    S    
C14   H15   S    
C20   C21   A    
C7    H1    S    
C37   H22   S    
C9    H16   S    
C25   N1    A    
C21   C22   S    
C15   C33   A    
Cu2   O2    S    
