data_str_m2_o2_o12_f0_pcu.sym.33
_audit_creation_date              2012-10-26T20:11:37-0400
_audit_creation_method            fapswitch 2.2
_symmetry_space_group_name_H-M    P1
_symmetry_Int_Tables_number       1
_space_group_crystal_system       triclinic
_cell_length_a                    11.035377
_cell_length_b                    15.065112
_cell_length_c                    14.013598
_cell_angle_alpha                 90.580264
_cell_angle_beta                  103.322699
_cell_angle_gamma                 91.699803
_cell_volume                      2265.70810155

loop_
_atom_site_label
_atom_site_type_symbol
_atom_type_description
_atom_site_fract_x
_atom_site_fract_y
_atom_site_fract_z
_atom_type_partial_charge
C1    C     C_R   0.500871 0.330619 0.499907 0.535185
C2    C     C_R   0.552091 0.569836 0.803503 0.127520
C3    C     C_R   0.395307 0.472642 0.086980 0.189275
C4    C     C_R   0.538706 0.574144 0.901556 0.190198
C5    C     C_R   0.503569 0.496344 0.055292 -0.012058
C6    C     C_R   0.500502 0.497337 0.945739 -0.001112
C7    C     C_R   0.262883 0.502322 0.459725 0.527187
C8    C     C_R   0.737457 0.497688 0.540431 0.529779
C9    C     C_2   0.127348 0.510921 0.436970 0.192363
C10   C     C_2   0.873573 0.488784 0.563434 0.191357
C11   C     C_2   0.065760 0.485752 0.504581 -0.059953
C12   C     C_R   0.492741 0.669623 0.499025 0.540595
C13   C     C_2   0.932647 0.499555 0.490696 -0.052082
C14   C     C_R   0.376047 0.098567 0.495412 -0.027131
C15   C     C_R   0.524296 0.907563 0.429574 -0.068829
C16   C     C_R   0.384880 0.190699 0.490860 -0.185839
C17   C     C_R   0.526562 0.815072 0.429474 -0.189044
C18   C     C_R   0.499878 0.234625 0.500398 -0.037492
C19   C     C_R   0.477883 0.765957 0.496856 -0.032989
C20   C     C_R   0.611140 0.187269 0.520205 0.290693
C21   C     C_R   0.418108 0.809699 0.562219 0.211597
C22   C     C_R   0.604728 0.095072 0.528982 0.311085
C23   C     C_R   0.486647 0.049626 0.511936 0.012454
C24   C     C_R   0.429473 0.902761 0.571703 0.285496
C25   C     C_R   0.250299 0.056647 0.486799 0.078447
C26   C     C_R   0.201911 0.990691 0.415301 -0.090364
C27   C     C_R   0.085973 0.949276 0.412367 -0.112599
C28   C     C_R   0.016980 0.974023 0.479800 -0.078843
C29   C     C_R   0.062669 0.041081 0.549298 -0.077989
C30   C     C_R   0.178621 0.082401 0.552790 -0.053450
C31   C     C_R   0.575394 0.956351 0.354694 0.062900
C32   C     C_R   0.510294 0.025923 0.301798 -0.086844
C33   C     C_R   0.563299 0.075578 0.237400 -0.108972
C34   C     C_R   0.479354 0.951693 0.503796 -0.003301
C35   C     C_R   0.679972 0.054542 0.222306 -0.087068
C36   C     C_R   0.743354 0.983350 0.271294 -0.093967
C37   C     C_R   0.691477 0.934390 0.337098 -0.072719
C38   C     C_R   0.730526 0.547716 0.102062 0.099013
C39   C     C_R   0.792076 0.482732 0.060318 -0.093340
C40   C     C_R   0.905167 0.503433 0.035520 -0.125258
C41   C     C_R   0.958203 0.589113 0.052584 -0.108185
C42   C     C_R   0.898365 0.654157 0.094734 -0.080836
C43   C     C_R   0.785228 0.633691 0.119626 0.013383
C44   C     C_R   0.423764 0.336391 0.921601 0.112141
C45   C     C_R   0.609826 0.525230 0.128002 -0.042282
C46   C     C_R   0.516979 0.283133 0.974746 -0.094732
C47   C     C_R   0.486369 0.199261 0.005500 -0.116727
C48   C     C_R   0.362298 0.168416 0.985049 -0.105203
C49   C     C_R   0.268838 0.220650 0.931380 -0.106387
C50   C     C_R   0.299509 0.303722 0.898308 0.006215
C51   C     C_R   0.311783 0.398852 0.216976 0.090223
C52   C     C_R   0.188029 0.420676 0.214020 -0.079537
C53   C     C_R   0.103292 0.356583 0.233835 -0.101265
C54   C     C_R   0.140521 0.269621 0.254264 -0.122572
C55   C     C_R   0.261938 0.246435 0.253485 -0.124302
C56   C     C_R   0.457943 0.422673 0.883086 0.010619
C57   C     C_R   0.346961 0.310530 0.234158 -0.050032
C58   C     C_R   0.633891 0.638922 0.774553 0.125545
C59   C     C_R   0.756525 0.618938 0.772240 -0.052881
C60   C     C_R   0.837781 0.684693 0.750699 -0.111482
C61   C     C_R   0.798733 0.771853 0.735461 -0.122682
C62   C     C_R   0.679447 0.793595 0.743990 -0.121345
C63   C     C_R   0.597866 0.727661 0.764887 -0.013414
C64   C     C_R   0.600561 0.535367 0.226945 0.344819
C65   C     C_R   0.448007 0.428784 0.780707 0.347767
C66   C     C_R   0.400753 0.463528 0.189136 0.078811
Cu1   Cu    Cu3+1 0.500000 0.499990 0.596430 0.965310
Cu2   Cu    Cu3+1 0.500000 0.500010 0.403570 0.946100
H1    H     H_    0.881726 0.518563 0.418450 0.215622
H2    H     H_    0.049942 0.897590 0.358182 0.104644
H3    H     H_    0.928344 0.941153 0.478671 0.126893
H4    H     H_    0.008802 0.060406 0.601172 0.158056
H5    H     H_    0.213856 0.133164 0.608387 0.135708
H6    H     H_    0.419307 0.042859 0.311154 0.084727
H7    H     H_    0.513730 0.130645 0.199834 0.097515
H8    H     H_    0.721289 0.093168 0.172586 0.100000
H9    H     H_    0.833314 0.966645 0.259022 0.100562
H10   H     H_    0.742944 0.880360 0.375587 0.091412
H11   H     H_    0.720721 0.292275 0.521119 0.316862
H12   H     H_    0.115008 0.456135 0.572393 0.162683
H13   H     H_    0.311858 0.708831 0.579481 0.343375
H14   H     H_    0.701962 0.991528 0.576544 0.308196
H15   H     H_    0.367466 0.905397 0.691736 0.365677
H16   H     H_    0.753317 0.415913 0.047931 0.086473
H17   H     H_    0.952012 0.452893 0.003503 0.114111
H18   H     H_    0.045842 0.604993 0.033454 0.116509
H19   H     H_    0.939508 0.720546 0.107946 0.101417
H20   H     H_    0.739297 0.685198 0.151094 0.127059
H21   H     H_    0.613575 0.305079 0.989616 0.088152
H22   H     H_    0.559317 0.157755 0.043916 0.105464
H23   H     H_    0.300921 0.228835 0.479000 0.127936
H24   H     H_    0.338872 0.103608 0.009621 0.114392
H25   H     H_    0.172871 0.196369 0.914430 0.112192
H26   H     H_    0.226562 0.342973 0.855253 0.155723
H27   H     H_    0.659700 0.617834 0.332959 0.352015
H28   H     H_    0.333904 0.385260 0.664671 0.353726
H29   H     H_    0.157487 0.487228 0.195926 0.109290
H30   H     H_    0.008580 0.374239 0.232626 0.146857
H31   H     H_    0.074932 0.219960 0.269508 0.118746
H32   H     H_    0.290046 0.178715 0.267516 0.101330
H33   H     H_    0.440231 0.291326 0.232273 0.110231
H34   H     H_    0.566836 0.780979 0.376296 0.134323
H35   H     H_    0.789468 0.552593 0.788357 0.112729
H36   H     H_    0.931470 0.668278 0.747109 0.143004
H37   H     H_    0.861731 0.822868 0.719132 0.122658
H38   H     H_    0.650544 0.861624 0.735136 0.129238
H39   H     H_    0.507161 0.745638 0.774387 0.177863
H40   H     H_    0.213977 0.462794 0.045924 0.313997
H41   H     H_    0.520143 0.656554 0.004598 0.327611
H42   H     H_    0.880658 0.451321 0.696904 0.335657
H43   H     H_    0.126967 0.579396 0.320513 0.327687
H44   H     H_    0.254060 0.970400 0.362733 0.094237
N1    N     N_R   0.500000 0.500020 0.258690 -0.256887
N2    N     N_R   0.500000 0.499980 0.741310 -0.270695
O1    O     O_R   0.500010 0.371450 0.581440 -0.456351
O2    O     O_3   0.566383 0.654272 0.951946 -0.731018
O3    O     O_3   0.940063 0.466552 0.655948 -0.724514
O4    O     O_3   0.064686 0.550124 0.351623 -0.720368
O5    O     O_3   0.728097 0.227995 0.533813 -0.645248
O6    O     O_3   0.346067 0.764311 0.615504 -0.729165
O7    O     O_3   0.716258 0.051801 0.553092 -0.664359
O8    O     O_3   0.391581 0.948079 0.645594 -0.694778
O9    O     O_3   0.697024 0.579734 0.290558 -0.705854
O10   O     O_3   0.388560 0.359240 0.722596 -0.686135
O11   O     O_R   0.499990 0.628550 0.418560 -0.529553
O12   O     O_R   0.500010 0.371460 0.418560 -0.503375
O13   O     O_R   0.499990 0.628540 0.581440 -0.485691
O14   O     O_R   0.320690 0.500000 0.551510 -0.545372
O15   O     O_R   0.679310 0.500000 0.448490 -0.494903
O16   O     O_R   0.320690 0.500010 0.388630 -0.498337
O17   O     O_R   0.679310 0.499990 0.611370 -0.512378
O18   O     O_3   0.286350 0.457705 0.016318 -0.728547

loop_
_geom_bond_atom_site_label_1
_geom_bond_atom_site_label_2
_ccdc_geom_bond_type
C40   H17   S    
C40   C41   A    
C66   N1    A    
Cu2   O12   S    
C11   C13   S    
C41   C42   A    
C35   C36   A    
C46   H21   S    
C53   C54   A    
C41   H18   S    
H13   O6    S    
C1    C18   S    
C29   C30   A    
H43   O4    S    
C43   H20   S    
C36   C37   A    
C19   C21   A    
Cu1   N2    S    
C39   H16   S    
C21   O6    S    
C36   H9    S    
C32   H6    S    
C38   C39   A    
H27   O9    S    
C56   C65   A    
C52   H29   S    
C25   C30   A    
C15   C17   A    
C65   N2    A    
C65   O10   S    
Cu1   O1    S    
C38   C45   S    
H41   O2    S    
C17   C19   A    
C46   C47   A    
C33   H7    S    
C31   C32   A    
C7    O16   A    
H11   O5    S    
C55   H32   S    
C51   C57   A    
C7    O14   A    
C61   H37   S    
C15   C34   A    
Cu2   N1    S    
C29   H4    S    
C59   C60   A    
C14   C25   S    
C9    O4    S    
C61   C62   A    
H42   O3    S    
C44   C46   A    
C35   H8    S    
H28   O10   S    
Cu1   Cu2   S    
C1    O12   A    
C4    C6    A    
C39   C40   A    
C12   O13   A    
C30   H5    S    
C50   H26   S    
C12   O11   A    
C58   C59   A    
C5    C45   A    
C24   C34   A    
C3    O18   S    
C60   C61   A    
C51   C66   S    
C14   C23   A    
C2    C4    A    
C17   H34   S    
C62   C63   A    
Cu1   O13   S    
C44   C56   S    
C47   C48   A    
C23   C34   S    
C8    O17   A    
C24   O8    S    
C26   C27   A    
Cu2   O16   S    
C9    C11   D    
C27   H2    S    
C16   C18   A    
C48   C49   A    
C20   C22   A    
C55   C57   A    
C47   H22   S    
C14   C16   A    
C54   H31   S    
C28   H3    S    
C42   C43   A    
C63   H39   S    
C26   H44   S    
C8    O15   A    
C52   C53   A    
C22   O7    S    
C44   C50   A    
C58   C63   A    
C7    C9    S    
C54   C55   A    
C28   C29   A    
C64   N1    A    
H14   O7    S    
C4    O2    S    
Cu1   O17   S    
C6    C56   A    
C3    C5    A    
C10   C13   D    
C2    C58   S    
C15   C31   S    
C62   H38   S    
C53   H30   S    
C64   O9    S    
C57   H33   S    
C37   H10   S    
C45   C64   A    
C59   H35   S    
C32   C33   A    
C25   C26   A    
C51   C52   A    
C10   O3    S    
Cu1   O14   S    
C2    N2    A    
C5    C6    S    
C13   H1    S    
C12   C19   S    
C33   C35   A    
C18   C20   A    
H15   O8    S    
Cu2   O15   S    
H40   O18   S    
C11   H12   S    
C3    C66   A    
C31   C37   A    
C38   C43   A    
C16   H23   S    
C8    C10   S    
C49   C50   A    
C48   H24   S    
C21   C24   A    
C27   C28   A    
C22   C23   A    
C42   H19   S    
C1    O1    A    
C49   H25   S    
C60   H36   S    
Cu2   O11   S    
C20   O5    S    
