data_str_m2_o4_o9_f0_pcu.sym.47
_audit_creation_date              2012-10-26T19:00:11-0400
_audit_creation_method            fapswitch 2.2
_symmetry_space_group_name_H-M    P1
_symmetry_Int_Tables_number       1
_space_group_crystal_system       triclinic
_cell_length_a                    10.928407
_cell_length_b                    10.781865
_cell_length_c                    9.617516
_cell_angle_alpha                 89.919278
_cell_angle_beta                  91.258694
_cell_angle_gamma                 90.440052
_cell_volume                      1132.9108057

loop_
_atom_site_label
_atom_site_type_symbol
_atom_type_description
_atom_site_fract_x
_atom_site_fract_y
_atom_site_fract_z
_atom_type_partial_charge
C1    C     C_R   0.500986 0.262720 0.500216 0.545980
C2    C     C_R   0.846192 0.576502 0.982841 0.280887
C3    C     C_R   0.803365 0.462281 0.033734 -0.073301
C4    C     C_R   0.262529 0.500324 0.498138 0.539423
C5    C     C_R   0.807218 0.354442 0.953720 -0.172459
C6    C     C_R   0.851522 0.359025 0.819291 -0.093023
C7    C     C_R   0.891481 0.472122 0.764946 0.026584
C8    C     C_R   0.458674 0.063754 0.613162 0.016142
C9    C     C_R   0.507678 0.129477 0.502234 0.011939
C10   C     C_R   0.567215 0.065281 0.396753 -0.166628
C11   C     C_R   0.566715 0.935967 0.396951 -0.166798
C12   C     C_R   0.193857 0.598044 0.968666 -0.114339
C13   C     C_R   0.505604 0.870874 0.501476 0.010440
C14   C     C_R   0.456778 0.935876 0.612299 0.013402
C15   C     C_3   0.329281 0.930605 0.665824 -0.277640
C16   C     C_R   0.499931 0.737374 0.500000 0.544208
C17   C     C_3   0.332442 0.071153 0.668785 -0.273885
C18   C     C_R   0.475950 0.605400 0.072456 0.179520
C19   C     C_R   0.511306 0.392737 0.074405 -0.024548
C20   C     C_R   0.511028 0.392704 0.926369 -0.012008
C21   C     C_R   0.477504 0.605643 0.926041 0.153868
C22   C     C_3   0.547267 0.724614 0.923255 -0.271481
C23   C     C_R   0.931884 0.529976 0.381170 -0.159537
C24   C     C_3   0.542566 0.725940 0.080906 -0.279845
C25   C     C_R   0.737791 0.501418 0.501758 0.542730
C26   C     C_R   0.189550 0.694628 0.065252 -0.126005
C27   C     C_R   0.148044 0.671697 0.199365 -0.044581
C28   C     C_R   0.111736 0.551486 0.237109 0.080900
C29   C     C_R   0.120005 0.454195 0.141374 -0.065730
C30   C     C_R   0.162257 0.477302 0.008000 -0.101931
C31   C     C_3   0.880893 0.791840 0.014077 -0.022462
C32   C     C_3   0.872713 0.893564 0.122729 -0.381167
C33   C     C_R   0.872215 0.503175 0.504609 -0.012121
C34   C     C_R   0.942934 0.479076 0.625900 -0.029645
C35   C     C_R   0.069408 0.476058 0.618974 -0.159893
C36   C     C_R   0.128745 0.500566 0.494914 -0.012514
C37   C     C_R   0.058563 0.527598 0.373879 -0.039131
C38   C     C_R   0.889658 0.580014 0.845582 -0.072602
Cu1   Cu    Cu3+1 0.499990 0.499980 0.640670 0.933061
Cu2   Cu    Cu3+1 0.500010 0.500020 0.359330 0.937658
H1    H     H_    0.223955 0.616593 0.864221 0.124429
H2    H     H_    0.332381 0.110034 0.775796 0.127417
H3    H     H_    0.523934 0.305838 0.128507 0.112442
H4    H     H_    0.216567 0.787548 0.035416 0.084019
H5    H     H_    0.523098 0.305737 0.873081 0.120990
H6    H     H_    0.640051 0.712291 0.881558 0.161270
H7    H     H_    0.494192 0.800910 0.874768 0.124569
H8    H     H_    0.632606 0.717647 0.134807 0.199912
H9    H     H_    0.483477 0.800788 0.120840 0.116777
H10   H     H_    0.142264 0.747425 0.272731 0.088983
H11   H     H_    0.092565 0.360945 0.169741 0.094775
H12   H     H_    0.765550 0.456072 0.136026 0.144742
H13   H     H_    0.169430 0.401414 0.935426 0.098468
H14   H     H_    0.879779 0.556054 0.290054 0.183458
H15   H     H_    0.121828 0.456086 0.712582 0.129397
H16   H     H_    0.923860 0.664605 0.799466 0.075057
H17   H     H_    0.819925 0.817088 0.924658 0.117113
H18   H     H_    0.977061 0.788520 0.980048 0.139804
H19   H     H_    0.929527 0.869552 0.215958 0.157157
H20   H     H_    0.906275 0.982658 0.079112 0.089995
H21   H     H_    0.776311 0.905230 0.153596 0.137727
H22   H     H_    0.774674 0.267393 0.995870 0.094444
H23   H     H_    0.854427 0.275180 0.757596 0.107756
H24   H     H_    0.611378 0.114670 0.313207 0.115659
H25   H     H_    0.611567 0.887156 0.314586 0.117035
H26   H     H_    0.262277 0.892094 0.588224 0.128521
H27   H     H_    0.324031 0.888772 0.771068 0.120903
H28   H     H_    0.266207 0.114519 0.594276 0.131325
N1    N     N_R   0.500790 0.500930 0.147930 -0.230666
N2    N     N_R   0.500790 0.500890 0.852020 -0.230867
O1    O     O_R   0.500000 0.319640 0.618810 -0.510227
O2    O     O_R   0.500010 0.319680 0.381230 -0.518574
O3    O     O_R   0.319640 0.499990 0.618790 -0.517368
O4    O     O_R   0.319650 0.500030 0.381210 -0.485096
O5    O     O_R   0.499990 0.680320 0.618770 -0.505321
O6    O     O_R   0.500000 0.680360 0.381190 -0.509114
O7    O     O_R   0.680350 0.499970 0.618790 -0.485661
O8    O     O_R   0.680360 0.500010 0.381210 -0.517719
O9    O     O_3   0.845012 0.677597 0.073573 -0.596996

loop_
_geom_bond_atom_site_label_1
_geom_bond_atom_site_label_2
_ccdc_geom_bond_type
C4    C36   S    
C18   C21   A    
C19   C20   A    
C26   H4    S    
C26   C27   A    
C1    O1    A    
C18   C24   S    
Cu1   O7    S    
C31   H18   S    
C36   C37   A    
C32   H21   S    
C5    C6    A    
C16   O5    A    
C34   C35   A    
C17   H2    S    
C25   O7    A    
C2    O9    S    
Cu1   N2    S    
C35   C36   A    
C8    C9    A    
C23   C33   A    
Cu1   O5    S    
C29   C30   A    
C9    C10   A    
C4    O4    A    
C20   H5    S    
C27   H10   S    
C18   N1    A    
C22   H7    S    
C13   C14   A    
C20   N2    A    
C19   H3    S    
C30   H13   S    
C1    O2    A    
Cu2   N1    S    
C35   H15   S    
C25   O8    A    
C24   H8    S    
C1    C9    S    
Cu1   Cu2   S    
C23   C37   A    
C15   H26   S    
Cu2   O6    S    
C12   C26   A    
C6    H23   S    
C12   H1    S    
C2    C38   A    
C31   C32   S    
C15   H27   S    
C33   C34   A    
C4    O3    A    
C22   H6    S    
C7    C34   S    
C22   C24   S    
C19   N1    A    
C32   H20   S    
C23   H14   S    
C29   H11   S    
C24   H9    S    
C15   C17   S    
C28   C29   A    
C17   H28   S    
C8    C14   A    
Cu2   O2    S    
C12   C30   A    
C16   O6    A    
C10   H24   S    
C3    C5    A    
C3    H12   S    
C31   O9    S    
C6    C7    A    
C8    C17   S    
C21   N2    A    
C31   H17   S    
C2    C3    A    
C11   C13   A    
C28   C37   S    
C7    C38   A    
Cu2   O4    S    
C5    H22   S    
Cu2   O8    S    
Cu1   O3    S    
C10   C11   A    
C38   H16   S    
C13   C16   S    
C27   C28   A    
Cu1   O1    S    
C14   C15   S    
C32   H19   S    
C21   C22   S    
C11   H25   S    
C25   C33   S    
