data_str_m2_o5_o13_f0_pcu.sym.17
_audit_creation_date              2012-10-26T21:05:39-0400
_audit_creation_method            fapswitch 2.2
_symmetry_space_group_name_H-M    P1
_symmetry_Int_Tables_number       1
_space_group_crystal_system       triclinic
_cell_length_a                    12.978503
_cell_length_b                    9.088408
_cell_length_c                    7.795159
_cell_angle_alpha                 89.940482
_cell_angle_beta                  96.15757
_cell_angle_gamma                 90.054012
_cell_volume                      914.16410592

loop_
_atom_site_label
_atom_site_type_symbol
_atom_type_description
_atom_site_fract_x
_atom_site_fract_y
_atom_site_fract_z
_atom_type_partial_charge
C1    C     C_R   0.500084 0.220074 0.500067 0.540286
C2    C     C_R   0.855295 0.661973 0.607408 0.163883
C3    C     C_R   0.130457 0.593389 0.529475 0.226355
C4    C     C_R   0.870316 0.420585 0.471343 0.188340
C5    C     C_R   0.021625 0.580694 0.520158 -0.010715
C6    C     C_R   0.972970 0.453669 0.441134 -0.059974
C7    C     C_1   0.500023 0.065391 0.500076 -0.013986
C8    C     C_1   0.499948 0.934606 0.499920 -0.010578
C9    C     C_2   0.975928 0.252892 0.215005 0.389714
C10   C     C_2   0.998031 0.840894 0.634721 0.400039
C11   C     C_R   0.499855 0.779927 0.499920 0.540883
C12   C     C_R   0.300380 0.496291 0.468010 0.517174
C13   C     C_R   0.699315 0.506966 0.531707 0.521914
C14   C     C_R   0.811047 0.526570 0.548142 0.002815
C15   C     C_R   0.187757 0.487571 0.447837 -0.012564
C16   C     C_R   0.029542 0.359444 0.339864 0.075728
C17   C     C_R   0.960045 0.689522 0.591960 0.074846
C18   C     C_R   0.137555 0.373137 0.348824 0.214521
Cu1   Cu    Cu3+1 0.500010 0.500000 0.669080 1.064361
Cu2   Cu    Cu3+1 0.499990 0.500000 0.330920 1.077195
H1    H     H_    0.772201 0.260041 0.499788 0.339217
H2    H     H_    0.242886 0.734502 0.579152 0.345108
H3    H     H_    0.725514 0.745024 0.676989 0.349555
H4    H     H_    0.261698 0.257825 0.320842 0.336680
H5    H     H_    0.899722 0.278829 0.150861 0.131740
H6    H     H_    0.978625 0.894139 0.751623 0.161586
N1    N     N_1   0.499980 0.500000 0.076820 -0.061128
N2    N     N_1   0.500020 0.500000 0.923180 -0.061591
O1    O     O_R   0.500000 0.288400 0.642760 -0.493480
O2    O     O_3   0.180310 0.702092 0.631195 -0.644833
O3    O     O_3   0.798311 0.774245 0.672327 -0.709527
O4    O     O_3   0.191645 0.272524 0.259825 -0.613419
O5    O     O_2   0.015521 0.135656 0.182863 -0.390909
O6    O     O_2   0.045290 0.910531 0.534217 -0.418070
O7    O     O_R   0.500000 0.711600 0.357240 -0.491095
O8    O     O_R   0.500000 0.288400 0.357240 -0.497523
O9    O     O_R   0.500000 0.711600 0.642760 -0.505773
O10   O     O_R   0.349000 0.500000 0.619590 -0.479521
O11   O     O_R   0.651000 0.500000 0.380410 -0.484703
O12   O     O_R   0.348990 0.500000 0.334020 -0.492646
O13   O     O_R   0.651010 0.500000 0.665980 -0.518046
O14   O     O_3   0.831076 0.281198 0.432586 -0.691858

loop_
_geom_bond_atom_site_label_1
_geom_bond_atom_site_label_2
_ccdc_geom_bond_type
C12   O12   A    
C3    O2    S    
H4    O4    S    
Cu1   O10   S    
C15   C18   A    
H2    O2    S    
Cu1   Cu2   S    
C12   C15   S    
C10   H6    S    
C1    O1    A    
C9    H5    S    
C7    C8    T    
C10   O6    D    
Cu1   O1    S    
C13   C14   S    
C2    C17   A    
C9    O5    D    
Cu1   N2    S    
C4    O14   S    
C8    C11   S    
Cu2   O12   S    
C13   O13   A    
Cu2   N1    S    
C9    C16   S    
C4    C14   A    
C5    C6    A    
C2    C14   A    
C13   O11   A    
C4    C6    A    
C5    C17   A    
C10   C17   S    
C6    C16   A    
H1    O14   S    
Cu2   O8    S    
C12   O10   A    
C18   O4    S    
C16   C18   A    
N1    N2    T    
C11   O9    A    
Cu2   O11   S    
C3    C15   A    
Cu1   O9    S    
C1    C7    S    
Cu2   O7    S    
C11   O7    A    
Cu1   O13   S    
C1    O8    A    
C2    O3    S    
C3    C5    A    
H3    O3    S    
