data_str_m2_o5_o13_f0_pcu.sym.42
_audit_creation_date              2013-03-05T16:34:33-0500
_audit_creation_method            fapswitch 2.2
_symmetry_space_group_name_H-M    P1
_symmetry_Int_Tables_number       1
_space_group_crystal_system       triclinic
_cell_length_a                    13.004319
_cell_length_b                    9.08837
_cell_length_c                    7.794763
_cell_angle_alpha                 90.06905
_cell_angle_beta                  96.339689
_cell_angle_gamma                 89.981703
_cell_volume                      915.613552774

loop_
_atom_site_label
_atom_site_type_symbol
_atom_site_description
_atom_site_fract_x
_atom_site_fract_y
_atom_site_fract_z
_atom_type_partial_charge
O1    O     O_R   0.500000 0.288400 0.642760 -0.578458
O2    O     O_R   0.500000 0.711600 0.357240 -0.578457
O3    O     O_R   0.500000 0.288400 0.357240 -0.574805
O4    O     O_R   0.500000 0.711600 0.642760 -0.574805
N1    N     N_1   0.499980 0.500000 0.076820 -0.047323
N2    N     N_1   0.500020 0.500000 0.923180 -0.047323
C1    C     C_R   0.499900 0.220073 0.499928 0.829043
C2    C     C_R   0.500100 0.779927 0.500072 0.829043
O5    O     O_R   0.349000 0.500000 0.619590 -0.575382
O6    O     O_R   0.651000 0.500000 0.380410 -0.575384
O7    O     O_R   0.348990 0.500000 0.334020 -0.584147
O8    O     O_R   0.651010 0.500000 0.665980 -0.584148
C3    C     C_R   0.300548 0.502608 0.467766 0.815450
C4    C     C_R   0.699452 0.497390 0.532235 0.815446
Cu1   Cu    Cu3+1 0.500010 0.500000 0.669080 0.997610
Cu2   Cu    Cu3+1 0.499990 0.500000 0.330920 0.997610
C5    C     C_R   0.811617 0.486640 0.551405 -0.045864
C6    C     C_R   0.188384 0.513363 0.448597 -0.045856
C7    C     C_R   0.035491 0.659893 0.369945 -0.185992
C8    C     C_R   0.964511 0.340116 0.630066 -0.185993
C9    C     C_R   0.140902 0.637504 0.365516 0.100575
C10   C     C_R   0.859102 0.362510 0.634507 0.100569
C11   C     C_R   0.129799 0.408436 0.529281 0.086287
C12   C     C_R   0.870200 0.591563 0.470710 0.086286
C13   C     C_R   0.023755 0.436424 0.539925 0.071571
C14   C     C_R   0.976245 0.563579 0.460072 0.071569
H1    H     H_    0.000851 0.755321 0.303929 0.160109
H2    H     H_    0.999153 0.244693 0.696090 0.160112
C15   C     C_1   0.499961 0.065391 0.499921 -0.178143
C16   C     C_1   0.500039 0.934609 0.500079 -0.178145
C17   C     C_3   0.820686 0.733976 0.399669 -0.852151
H3    H     H_    0.866421 0.829607 0.454351 0.223125
H4    H     H_    0.817519 0.734866 0.256708 0.239938
H5    H     H_    0.741254 0.751789 0.434305 0.227432
C18   C     C_3   0.179309 0.266013 0.600303 -0.852184
H6    H     H_    0.133573 0.170394 0.545603 0.223139
H7    H     H_    0.258741 0.248204 0.565675 0.227434
H8    H     H_    0.182474 0.265106 0.743263 0.239935
C19   C     C_3   0.797886 0.249415 0.722765 -0.819669
H9    H     H_    0.735152 0.203835 0.629571 0.218415
H10   H     H_    0.846870 0.155901 0.774519 0.219912
H11   H     H_    0.763852 0.300849 0.832760 0.252489
C20   C     C_3   0.202125 0.750618 0.277301 -0.819684
H12   H     H_    0.264855 0.796178 0.370515 0.218411
H13   H     H_    0.236164 0.699209 0.167296 0.252489
H14   H     H_    0.153144 0.844143 0.225571 0.219915

loop_
_geom_bond_atom_site_label_1
_geom_bond_atom_site_label_2
_geom_bond_distance
_ccdc_geom_bond_type
C20   H12   1.110603 S    
C17   H4    1.110599 S    
C15   C16   1.188600 T    
O1    Cu1   1.933765 S    
C6    C9    1.409463 A    
C20   H13   1.110049 S    
O7    Cu2   1.966467 S    
O3    C1    1.274613 A    
C5    C10   1.409469 A    
O8    Cu1   1.966467 S    
O4    C2    1.274613 A    
C2    C16   1.405806 S    
O4    Cu1   1.934256 S    
O5    Cu1   1.959069 S    
C17   H5    1.107913 S    
C19   H10   1.111107 S    
C13   C14   1.421610 A    
O6    Cu2   1.959069 S    
O7    C3    1.276407 A    
C4    C5    1.453021 S    
C3    C6    1.453017 S    
C1    C15   1.405805 S    
C10   C19   1.512169 S    
C7    H1    1.081454 S    
C18   H7    1.107893 S    
O8    C4    1.276406 A    
C19   H11   1.110051 S    
C11   C18   1.522801 S    
C11   C13   1.413617 A    
N1    N2    1.197646 T    
C12   C14   1.413617 A    
C20   H14   1.111103 S    
O2    C2    1.274032 A    
C12   C17   1.522794 S    
C5    C12   1.411763 A    
C8    C13   1.405277 A    
C6    C11   1.411761 A    
C18   H8    1.110592 S    
O2    Cu2   1.933764 S    
O6    C4    1.278076 A    
C19   H9    1.110608 S    
C7    C14   1.405277 A    
O5    C3    1.278071 A    
N1    Cu2   1.980634 S    
C8    H2    1.081452 S    
C7    C9    1.389937 A    
N2    Cu1   1.980634 S    
O1    C1    1.274033 A    
Cu1   Cu2   2.635849 S    
C9    C20   1.512166 S    
O3    Cu2   1.934257 S    
C17   H3    1.110962 S    
C8    C10   1.389935 A    
C18   H6    1.110927 S    
