data_str_m2_o4_o25_f0_pcu.sym.189
_audit_creation_date              2012-12-10T19:04:46-0500
_audit_creation_method            fapswitch 2.2
_symmetry_space_group_name_H-M    P1
_symmetry_Int_Tables_number       1
_space_group_crystal_system       triclinic
_cell_length_a                    15.828011
_cell_length_b                    10.816661
_cell_length_c                    9.602996
_cell_angle_alpha                 90.020572
_cell_angle_beta                  91.487584
_cell_angle_gamma                 91.459597
_cell_volume                      1643.00450687

loop_
_atom_site_label
_atom_site_type_symbol
_atom_type_description
_atom_site_fract_x
_atom_site_fract_y
_atom_site_fract_z
_atom_type_partial_charge
C1    C     C_R   0.501338 0.262668 0.500163 0.773092
C2    C     C_3   0.082619 0.492807 0.496804 0.131215
C3    C     C_3   0.975859 0.560727 0.608529 -0.222394
C4    C     C_3   0.916998 0.492953 0.502204 0.135604
C5    C     C_3   0.029597 0.609728 0.486586 -0.125440
C6    C     C_3   0.969290 0.541916 0.380252 -0.208276
C7    C     C_1   0.174361 0.494701 0.494920 -0.059460
C8    C     C_1   0.825297 0.493174 0.504368 -0.034986
C9    C     C_R   0.501882 0.064096 0.625530 0.143605
C10   C     C_R   0.508321 0.129855 0.501086 -0.086428
C11   C     C_R   0.524103 0.065594 0.377917 -0.218787
C12   C     C_R   0.339921 0.499262 0.498456 0.811399
C13   C     C_R   0.522030 0.936993 0.377498 -0.236411
C14   C     C_R   0.506197 0.871335 0.500742 -0.094647
C15   C     C_R   0.500986 0.936669 0.625520 0.103751
C16   C     C_3   0.434386 0.929471 0.733094 -0.465617
C17   C     C_3   0.435807 0.069737 0.733375 -0.475145
C18   C     C_R   0.568359 0.544875 0.076793 0.215516
C19   C     C_R   0.434817 0.443965 0.066975 0.150925
C20   C     C_R   0.438214 0.441425 0.919423 -0.098694
C21   C     C_R   0.568574 0.545684 0.929859 0.147841
C22   C     C_3   0.606511 0.674808 0.927826 -0.235815
C23   C     C_R   0.500154 0.737607 0.500024 0.772412
C24   C     C_3   0.605671 0.671899 0.087992 0.210095
C25   C     C_R   0.660020 0.498893 0.501505 0.829510
C26   C     C_3   0.971062 0.378389 0.512126 0.516288
C27   C     C_3   0.023928 0.424959 0.389506 -0.251222
C28   C     C_1   0.250057 0.496851 0.495328 -0.202586
C29   C     C_1   0.749704 0.495418 0.504355 -0.147224
C30   C     C_3   0.030519 0.443933 0.619654 -0.246661
Cu1   Cu    Cu3+1 0.500000 0.499980 0.640670 0.936683
Cu2   Cu    Cu3+1 0.500000 0.500020 0.359330 0.948184
H1    H     H_    0.044930 0.369177 0.300349 0.130250
H2    H     H_    0.457972 0.890016 0.833036 0.185924
H3    H     H_    0.375947 0.109727 0.692968 0.189061
H4    H     H_    0.460988 0.110605 0.832774 0.200122
H5    H     H_    0.388675 0.396158 0.856919 0.149383
H6    H     H_    0.560568 0.741556 0.884549 0.143887
H7    H     H_    0.560031 0.736460 0.132912 0.057328
H8    H     H_    0.942904 0.582574 0.282854 0.153868
H9    H     H_    0.055316 0.705600 0.475870 0.132827
H10   H     H_    0.955038 0.616659 0.697670 0.145491
H11   H     H_    0.056843 0.403370 0.717159 0.130396
H12   H     H_    0.534331 0.113925 0.280880 0.157687
H13   H     H_    0.529456 0.889983 0.279731 0.143570
H14   H     H_    0.373761 0.887707 0.692222 0.199145
N1    N     N_R   0.500530 0.500930 0.147930 -0.223861
N2    N     N_R   0.500530 0.500890 0.852020 -0.199787
O1    O     O_R   0.500000 0.319640 0.618810 -0.572593
O2    O     O_R   0.500010 0.319680 0.381230 -0.597499
O3    O     O_R   0.379070 0.499970 0.618770 -0.578636
O4    O     O_R   0.379080 0.500010 0.381190 -0.589560
O5    O     O_R   0.499990 0.680320 0.618770 -0.580242
O6    O     O_R   0.500000 0.680360 0.381190 -0.588868
O7    O     O_R   0.620920 0.499990 0.618810 -0.583725
O8    O     O_R   0.620930 0.500030 0.381230 -0.535138
C31   C     C_3   0.351341 0.390486 0.120493 -0.344463
C32   C     C_3   0.358660 0.264097 0.193020 -0.268428
C33   C     C_3   0.286022 0.174548 0.151749 -0.932464
H15   H     H_    0.224410 0.214898 0.177102 0.255699
H16   H     H_    0.287069 0.153924 0.038455 0.258300
H17   H     H_    0.292861 0.086568 0.210080 0.252476
H18   H     H_    0.418832 0.220371 0.166044 0.218207
H19   H     H_    0.356252 0.276481 0.307237 0.232240
H20   H     H_    0.315741 0.458541 0.178734 0.200962
H21   H     H_    0.305879 0.377090 0.031071 0.155086
C34   C     C_3   0.695133 0.685293 0.861758 -0.282722
C35   C     C_3   0.695890 0.778414 0.740987 -0.365570
C36   C     C_3   0.785122 0.803550 0.689568 -0.889936
H22   H     H_    0.825571 0.846567 0.773490 0.254053
H23   H     H_    0.813671 0.716373 0.655873 0.258044
H24   H     H_    0.782641 0.867807 0.599473 0.255606
H25   H     H_    0.656228 0.742120 0.652845 0.236429
H26   H     H_    0.669739 0.867506 0.775437 0.218687
H27   H     H_    0.743982 0.717851 0.938963 0.236219
H28   H     H_    0.715156 0.593698 0.823976 0.210993
O9    O     O_3   0.686275 0.668148 0.155027 -0.554762
C37   C     C_3   0.705731 0.783067 0.219376 0.080876
H29   H     H_    0.667316 0.793380 0.313764 0.155339
H30   H     H_    0.694216 0.861670 0.146746 0.130674
C38   C     C_3   0.798530 0.788094 0.264456 -0.812782
H31   H     H_    0.838873 0.775035 0.172956 0.239414
H32   H     H_    0.814527 0.879274 0.312666 0.201661
H33   H     H_    0.811407 0.714633 0.342060 0.253793
O10   O     O_3   0.933793 0.259257 0.525755 -0.578449
C39   C     C_3   0.997525 0.170526 0.532047 0.064930
H34   H     H_    0.041185 0.187495 0.623193 0.134325
H35   H     H_    0.034260 0.171208 0.434739 0.135863
C40   C     C_3   0.956673 0.042628 0.548032 -0.785956
H36   H     H_    0.913205 0.022198 0.457875 0.246308
H37   H     H_    0.006173 0.971677 0.552726 0.192682
H38   H     H_    0.920352 0.038219 0.645417 0.251310

loop_
_geom_bond_atom_site_label_1
_geom_bond_atom_site_label_2
_ccdc_geom_bond_type
C3    H10   S    
C36   H24   S    
C18   C21   A    
C19   C20   A    
C25   O8    A    
C31   H21   S    
C4    C8    S    
C18   N1    A    
C12   O3    A    
C38   H31   S    
O9    C37   S    
C27   H1    S    
C26   C27   S    
C12   C28   S    
C18   C24   S    
C8    C29   T    
C5    C6    S    
C37   H30   S    
C35   H26   S    
C15   C16   S    
C22   H6    S    
C24   H7    S    
C36   H23   S    
Cu2   O4    S    
C2    C7    S    
C12   O4    A    
Cu1   Cu2   S    
C35   C36   S    
C2    C27   S    
C17   H4    S    
C40   H37   S    
C1    O2    A    
C21   N2    A    
C16   H2    S    
C33   H15   S    
C21   C22   S    
C25   C29   S    
Cu1   O1    S    
Cu2   O6    S    
C38   H32   S    
C23   O5    A    
C32   H19   S    
C33   H16   S    
C39   H35   S    
C34   C35   S    
C4    C6    S    
C31   H20   S    
C39   H34   S    
C16   C17   S    
C32   C33   S    
O10   C39   S    
C19   C31   S    
C7    C28   T    
C14   C23   S    
C3    C30   S    
C6    C27   S    
C11   H12   S    
Cu1   O5    S    
C40   H38   S    
Cu2   O2    S    
C20   N2    A    
C9    C17   S    
C26   C30   S    
Cu1   N2    S    
Cu2   N1    S    
C22   C24   S    
C30   H11   S    
C2    C5    S    
C34   H27   S    
C16   H14   S    
C3    C4    S    
C38   H33   S    
C23   O6    A    
C9    C10   A    
C32   H18   S    
C5    H9    S    
C33   H17   S    
C37   H29   S    
C1    C10   S    
C25   O7    A    
Cu1   O3    S    
C3    C5    S    
C39   C40   S    
C4    C26   S    
C2    C30   S    
C35   H25   S    
C13   H13   S    
C20   H5    S    
C11   C13   A    
C37   C38   S    
C31   C32   S    
C26   O10   S    
C6    H8    S    
C9    C15   A    
C36   H22   S    
C22   C34   S    
C10   C11   A    
C24   O9    S    
C19   N1    A    
C14   C15   A    
C34   H28   S    
C17   H3    S    
Cu1   O7    S    
C40   H36   S    
C13   C14   A    
C1    O1    A    
Cu2   O8    S    
