data_str_m2_o1_o17_f0_pcu.sym.61
_audit_creation_date              2012-10-26T20:43:04-0400
_audit_creation_method            fapswitch 2.2
_symmetry_space_group_name_H-M    P1
_symmetry_Int_Tables_number       1
_space_group_crystal_system       triclinic
_cell_length_a                    10.989347
_cell_length_b                    9.486357
_cell_length_c                    15.004992
_cell_angle_alpha                 89.524523
_cell_angle_beta                  93.627946
_cell_angle_gamma                 89.859145
_cell_volume                      1561.05792257

loop_
_atom_site_label
_atom_site_type_symbol
_atom_type_description
_atom_site_fract_x
_atom_site_fract_y
_atom_site_fract_z
_atom_type_partial_charge
C1    C     C_R   0.262190 0.500100 0.501213 0.558757
C2    C     C_R   0.128718 0.501000 0.504085 -0.001820
C3    C     C_R   0.423589 0.075493 0.441527 0.001654
C4    C     C_R   0.576118 0.924458 0.558657 0.009701
C5    C     C_R   0.575892 0.073522 0.558803 0.005606
C6    C     C_R   0.423508 0.926411 0.441589 -0.000438
C7    C     C_R   0.495438 0.500841 0.328400 0.548512
C8    C     C_R   0.499867 0.499672 0.671297 0.529272
C9    C     C_R   0.595836 0.460995 0.819712 -0.152572
C10   C     C_R   0.388736 0.454826 0.181847 -0.156771
C11   C     C_R   0.491633 0.499405 0.767695 0.002390
C12   C     C_R   0.738220 0.500007 0.501692 0.564559
C13   C     C_R   0.492352 0.502913 0.231181 0.000809
C14   C     C_R   0.384685 0.545810 0.806935 -0.023888
C15   C     C_R   0.590487 0.557618 0.186598 -0.030181
C16   C     C_R   0.376102 0.518341 0.900610 0.007253
C17   C     C_R   0.599290 0.519465 0.096718 0.001537
C18   C     C_R   0.487984 0.496208 0.952442 -0.003785
C19   C     C_R   0.489312 0.496242 0.045644 -0.000777
C20   C     C_R   0.599036 0.474568 0.912207 0.007626
C21   C     C_R   0.381668 0.469432 0.088192 0.010085
C22   C     C_R   0.264860 0.501852 0.945402 0.042846
C23   C     C_R   0.271397 0.456985 0.036123 0.099811
C24   C     C_R   0.711403 0.494591 0.057856 0.037237
C25   C     C_3   0.302517 0.648539 0.750897 -0.247336
C26   C     C_3   0.354081 0.799252 0.756274 -0.283846
C27   C     C_3   0.280727 0.899852 0.693501 -0.435064
C28   C     C_3   0.662526 0.680957 0.226156 -0.255188
C29   C     C_3   0.585157 0.816539 0.223286 -0.285048
C30   C     C_3   0.650917 0.935063 0.274726 -0.441608
C31   C     C_3   0.139046 0.532080 0.902200 -0.230983
C32   C     C_3   0.109231 0.690367 0.913327 -0.305685
C33   C     C_3   0.991647 0.735556 0.861223 -0.463642
C34   C     C_R   0.709622 0.462400 0.965929 0.102423
C35   C     C_3   0.830606 0.483441 0.114865 -0.226547
C36   C     C_3   0.915367 0.607115 0.095478 -0.292023
C37   C     C_3   0.992674 0.655921 0.177936 -0.475803
C38   C     C_R   0.068245 0.391776 0.548337 0.086446
C39   C     C_R   0.933302 0.615203 0.465610 0.064983
C40   C     C_R   0.941268 0.391161 0.547780 0.092376
C41   C     C_R   0.061011 0.614067 0.464340 0.066504
C42   C     C_R   0.872517 0.501038 0.504296 0.002373
Cu1   Cu    Cu3+1 0.500000 0.640660 0.500000 0.931759
Cu2   Cu    Cu3+1 0.500000 0.359340 0.500000 0.910978
H1    H     H_    0.676622 0.432021 0.786294 0.098138
H2    H     H_    0.352479 0.838510 0.825685 0.146922
H3    H     H_    0.450635 0.801092 0.738733 0.187033
H4    H     H_    0.293196 0.614175 0.680502 0.162993
H5    H     H_    0.207360 0.653297 0.765504 0.139548
H6    H     H_    0.666314 0.905450 0.346320 0.192702
H7    H     H_    0.740029 0.957291 0.246559 0.141438
H8    H     H_    0.594335 0.032304 0.269773 0.147705
H9    H     H_    0.567015 0.850583 0.152576 0.153396
H10   H     H_    0.495488 0.799116 0.251474 0.184083
H11   H     H_    0.698246 0.654470 0.295003 0.185321
H12   H     H_    0.311695 0.419676 0.217553 0.101619
H13   H     H_    0.740536 0.705799 0.186954 0.149909
H14   H     H_    0.987093 0.692446 0.792506 0.151540
H15   H     H_    0.911453 0.700386 0.896475 0.154208
H16   H     H_    0.987989 0.852395 0.856545 0.147991
H17   H     H_    0.103003 0.715640 0.984867 0.158441
H18   H     H_    0.184429 0.757500 0.892255 0.164638
H19   H     H_    0.130294 0.492502 0.832961 0.124586
H20   H     H_    0.068283 0.469148 0.933263 0.197826
H21   H     H_    0.942025 0.734292 0.215478 0.130073
H22   H     H_    0.018986 0.566229 0.223224 0.152147
H23   H     H_    0.362553 0.132704 0.394717 0.107059
H24   H     H_    0.076664 0.708099 0.156869 0.140950
H25   H     H_    0.975776 0.570842 0.044879 0.203502
H26   H     H_    0.863874 0.699327 0.066229 0.157447
H27   H     H_    0.814886 0.476274 0.187056 0.132912
H28   H     H_    0.876688 0.382279 0.100729 0.169882
H29   H     H_    0.146216 0.459646 0.129337 0.228585
H30   H     H_    0.185951 0.297093 0.096319 0.229947
H31   H     H_    0.840541 0.481228 0.876510 0.220378
H32   H     H_    0.804772 0.313485 0.903696 0.231641
H33   H     H_    0.174757 0.215421 0.552950 0.249470
H34   H     H_    0.636979 0.867207 0.605568 0.110581
H35   H     H_    0.199724 0.326649 0.641675 0.231726
H36   H     H_    0.884541 0.745974 0.361152 0.210413
H37   H     H_    0.890928 0.823792 0.462777 0.229492
H38   H     H_    0.825440 0.322197 0.639540 0.222099
H39   H     H_    0.837378 0.214200 0.549373 0.243792
H40   H     H_    0.102464 0.822140 0.452290 0.224846
H41   H     H_    0.092449 0.732355 0.354279 0.217118
H42   H     H_    0.636215 0.129134 0.606067 0.104769
H43   H     H_    0.362541 0.870721 0.394774 0.123593
H44   H     H_    0.283313 0.864196 0.623308 0.184773
H45   H     H_    0.184460 0.904858 0.711849 0.154720
H46   H     H_    0.320468 0.007230 0.698541 0.151172
N1    N     N_R   0.500000 0.852070 0.500000 -0.227981
N2    N     N_R   0.500000 0.147930 0.500000 -0.224450
N3    N     N_3   0.165572 0.399797 0.074279 -0.669790
N4    N     N_3   0.819774 0.414710 0.929048 -0.663484
N5    N     N_3   0.133602 0.281795 0.597484 -0.590389
N6    N     N_3   0.864924 0.732796 0.427775 -0.622040
N7    N     N_3   0.884940 0.279307 0.595214 -0.595340
N8    N     N_3   0.122569 0.727113 0.421603 -0.624484
O1    O     O_R   0.319640 0.618740 0.499990 -0.471609
O2    O     O_R   0.680360 0.381260 0.500010 -0.519320
O3    O     O_R   0.680360 0.618740 0.500010 -0.464820
O4    O     O_R   0.319640 0.381260 0.499990 -0.523821
O5    O     O_R   0.499970 0.618800 0.370260 -0.504103
O6    O     O_R   0.500030 0.381200 0.629740 -0.506827
O7    O     O_R   0.500030 0.618800 0.629740 -0.518083
O8    O     O_R   0.499970 0.381200 0.370260 -0.499075

loop_
_geom_bond_atom_site_label_1
_geom_bond_atom_site_label_2
_ccdc_geom_bond_type
C30   H7    S    
C9    H1    S    
C33   H14   S    
C35   C36   S    
H29   N3    S    
C3    C6    A    
C8    O7    A    
C1    O1    A    
Cu2   O6    S    
C39   C41   A    
C28   H13   S    
H35   N5    S    
C26   C27   S    
C28   C29   S    
C19   C21   A    
Cu1   O1    S    
C32   H17   S    
C18   C19   A    
C11   C14   A    
C29   H10   S    
C2    C41   A    
C6    N1    A    
C37   H24   S    
C27   H46   S    
C1    C2    S    
Cu1   O7    S    
C12   C42   S    
H41   N8    S    
H32   N4    S    
C37   H21   S    
C38   N5    S    
H36   N6    S    
C10   H12   S    
Cu2   N2    S    
C4    N1    A    
C20   C34   A    
C40   C42   A    
C30   H6    S    
C35   H27   S    
C33   H15   S    
C7    O5    A    
H30   N3    S    
Cu1   N1    S    
C28   H11   S    
C36   H26   S    
C39   C42   A    
C25   H5    S    
C10   C21   A    
C17   C24   A    
C22   C31   S    
C24   C35   S    
C31   H19   S    
C40   N7    S    
H37   N6    S    
Cu2   O4    S    
C25   C26   S    
H33   N5    S    
C24   C34   A    
C6    H43   S    
C23   N3    S    
C3    N2    A    
Cu1   Cu2   S    
Cu1   O3    S    
C4    H34   S    
C29   C30   S    
C9    C11   A    
C2    C38   A    
C9    C20   A    
C31   C32   S    
C37   H22   S    
C7    O8    A    
C8    O6    A    
C25   H4    S    
C26   H3    S    
C5    H42   S    
C35   H28   S    
C33   H16   S    
C21   C23   A    
H38   N7    S    
C14   C16   A    
C36   H25   S    
C15   C17   A    
C30   H8    S    
C36   C37   S    
C16   C22   A    
C22   C23   A    
C31   H20   S    
C3    H23   S    
C34   N4    S    
C4    C5    A    
C10   C13   A    
Cu2   O8    S    
H40   N8    S    
C32   C33   S    
C13   C15   A    
C32   H18   S    
C12   O3    A    
C38   C40   A    
Cu2   O2    S    
C15   C28   S    
C29   H9    S    
C8    C11   S    
C17   C19   A    
C27   H45   S    
C18   C20   A    
C14   C25   S    
C27   H44   S    
Cu1   O5    S    
C39   N6    S    
C12   O2    A    
C5    N2    A    
C26   H2    S    
C7    C13   S    
C16   C18   A    
H39   N7    S    
C41   N8    S    
C1    O4    A    
H31   N4    S    
