data_str_m2_o4_o17_f0_pcu.sym.157
_audit_creation_date              2012-12-10T19:00:44-0500
_audit_creation_method            fapswitch 2.2
_symmetry_space_group_name_H-M    P1
_symmetry_Int_Tables_number       1
_space_group_crystal_system       triclinic
_cell_length_a                    15.013473
_cell_length_b                    10.808191
_cell_length_c                    9.530965
_cell_angle_alpha                 89.585538
_cell_angle_beta                  89.279356
_cell_angle_gamma                 91.432065
_cell_volume                      1545.92581685

loop_
_atom_site_label
_atom_site_type_symbol
_atom_type_description
_atom_site_fract_x
_atom_site_fract_y
_atom_site_fract_z
_atom_type_partial_charge
C1    C     C_R   0.500741 0.262431 0.500259 0.788017
C2    C     C_R   0.911252 0.618931 0.470168 -0.040618
C3    C     C_R   0.946231 0.281684 0.545654 0.429690
C4    C     C_R   0.039636 0.279812 0.546165 -0.320362
C5    C     C_R   0.090249 0.388857 0.524706 0.082442
C6    C     C_R   0.047421 0.501478 0.498355 0.074380
C7    C     C_R   0.098587 0.610760 0.474428 0.068312
C8    C     C_R   0.057174 0.721662 0.446749 -0.329990
C9    C     C_R   0.964338 0.726440 0.437945 0.473716
C10   C     C_R   0.183379 0.387326 0.527546 -0.237265
C11   C     C_R   0.232971 0.496596 0.502380 -0.038839
C12   C     C_R   0.329023 0.495942 0.500838 0.792867
C13   C     C_R   0.191106 0.607387 0.475255 -0.209730
C14   C     C_R   0.516110 0.063337 0.624115 -0.107237
C15   C     C_R   0.506833 0.129651 0.499375 -0.099087
C16   C     C_R   0.506527 0.065517 0.371328 -0.194867
C17   C     C_R   0.504659 0.936718 0.370901 -0.232278
C18   C     C_R   0.503299 0.870730 0.498461 -0.077291
C19   C     C_R   0.511681 0.936094 0.623464 -0.081732
C20   C     C_3   0.463309 0.929377 0.763160 0.268284
C21   C     C_3   0.468068 0.071141 0.764324 0.225029
C22   C     C_R   0.535932 0.598292 0.071817 0.271357
C23   C     C_R   0.499315 0.737527 0.499624 0.803791
C24   C     C_R   0.455649 0.410129 0.076107 -0.063869
C25   C     C_R   0.455378 0.410407 0.927100 -0.030091
C26   C     C_R   0.536405 0.597720 0.924483 0.281051
C27   C     C_3   0.630349 0.644751 0.915355 -0.483663
C28   C     C_3   0.629778 0.646923 0.074515 -0.564770
C29   C     C_R   0.671189 0.506133 0.499207 0.833955
C30   C     C_R   0.817115 0.621650 0.477025 0.391922
C31   C     C_R   0.767986 0.509461 0.496712 -0.182174
C32   C     C_R   0.810667 0.397664 0.515611 -0.275269
C33   C     C_R   0.903377 0.394092 0.518759 0.055471
C34   C     C_R   0.953886 0.504853 0.495499 -0.133752
Cu1   Cu    Cu3+1 0.500000 0.499980 0.640670 0.962503
Cu2   Cu    Cu3+1 0.500000 0.500020 0.359330 0.934376
H1    H     H_    0.501977 0.889447 0.271151 0.171598
H2    H     H_    0.505416 0.887106 0.844792 0.116452
H3    H     H_    0.402477 0.115754 0.756014 0.109490
H4    H     H_    0.421285 0.336022 0.133163 0.150048
H5    H     H_    0.420428 0.336986 0.872474 0.158555
H6    H     H_    0.676530 0.575864 0.871169 0.225120
H7    H     H_    0.635895 0.738471 0.866738 0.189352
H8    H     H_    0.676497 0.580731 0.121845 0.217123
H9    H     H_    0.770605 0.313677 0.531641 0.181605
H10   H     H_    0.633834 0.742652 0.115885 0.185189
H11   H     H_    0.072641 0.192778 0.561354 0.144849
H12   H     H_    0.217346 0.301647 0.547454 0.119123
H13   H     H_    0.230819 0.690668 0.453810 0.121511
H14   H     H_    0.097211 0.805048 0.428002 0.150539
H15   H     H_    0.504026 0.114139 0.271737 0.180004
N1    N     N_R   0.500570 0.500930 0.147930 -0.193989
N2    N     N_R   0.500570 0.500890 0.852020 -0.197568
O1    O     O_R   0.500000 0.319640 0.618810 -0.586161
O2    O     O_R   0.500010 0.319680 0.381230 -0.588155
O3    O     O_R   0.370250 0.499950 0.618800 -0.572901
O4    O     O_R   0.370260 0.499990 0.381220 -0.577002
O5    O     O_R   0.499990 0.680320 0.618770 -0.560365
O6    O     O_R   0.500000 0.680360 0.381190 -0.601260
O7    O     O_R   0.629740 0.500010 0.618780 -0.574947
O8    O     O_R   0.629750 0.500050 0.381200 -0.596827
O9    O     O_3   0.775499 0.733996 0.492836 -0.572199
C35   C     C_3   0.736553 0.770544 0.365630 0.084020
H16   H     H_    0.670149 0.725462 0.356484 0.160934
H17   H     H_    0.777715 0.747304 0.271737 0.132215
C36   C     C_3   0.723348 0.909955 0.367062 -0.756692
H18   H     H_    0.787908 0.961526 0.368977 0.277342
H19   H     H_    0.687182 0.938396 0.271710 0.188297
H20   H     H_    0.684761 0.935849 0.461881 0.253071
O10   O     O_3   0.375070 0.876699 0.768553 -0.568517
C37   C     C_3   0.321359 0.902064 0.650897 0.106648
H21   H     H_    0.329329 0.827935 0.572340 0.143885
H22   H     H_    0.336886 0.992518 0.599151 0.117959
C38   C     C_3   0.224124 0.901907 0.697623 -0.811949
H23   H     H_    0.214322 0.973090 0.779476 0.244021
H24   H     H_    0.181410 0.923464 0.606871 0.190201
H25   H     H_    0.203870 0.809552 0.740800 0.262943
O11   O     O_3   0.515535 0.118581 0.882042 -0.592228
C39   C     C_3   0.608981 0.127601 0.862515 0.087774
H26   H     H_    0.626812 0.194617 0.776928 0.171477
H27   H     H_    0.636593 0.035413 0.838868 0.134598
C40   C     C_3   0.651055 0.174958 0.996845 -0.791582
H28   H     H_    0.637756 0.107864 0.083859 0.238717
H29   H     H_    0.724150 0.187128 0.981415 0.196038
H30   H     H_    0.623116 0.265708 0.025350 0.258658
O12   O     O_3   0.896505 0.172222 0.557257 -0.632230
C41   C     C_3   0.901986 0.124114 0.694961 0.024886
H31   H     H_    0.881488 0.194311 0.773517 0.139087
H32   H     H_    0.970908 0.094465 0.717232 0.151264
C42   C     C_3   0.839020 0.011153 0.708392 -0.273301
H33   H     H_    0.769735 0.039560 0.688023 0.200497
H34   H     H_    0.857488 0.941770 0.628523 0.292940
C43   C     C_3   0.843162 0.951151 0.853553 -0.960442
H35   H     H_    0.911114 0.916843 0.872720 0.261107
H36   H     H_    0.795024 0.871534 0.859988 0.267930
H37   H     H_    0.825708 0.018498 0.936201 0.249511
O13   O     O_3   0.925594 0.837094 0.401750 -0.590362
C44   C     C_3   0.956294 0.880886 0.268132 0.011175
H38   H     H_    0.898390 0.884407 0.196988 0.158110
H39   H     H_    0.005636 0.820802 0.214921 0.134442
C45   C     C_3   0.995547 0.012063 0.282448 -0.305430
H40   H     H_    0.942805 0.074032 0.320688 0.259858
H41   H     H_    0.050112 0.012414 0.360129 0.213804
C46   C     C_3   0.031912 0.062266 0.142486 -0.944289
H42   H     H_    0.085518 0.002623 0.101968 0.260075
H43   H     H_    0.060009 0.157237 0.157219 0.263691
H44   H     H_    0.977790 0.066325 0.064380 0.256383

loop_
_geom_bond_atom_site_label_1
_geom_bond_atom_site_label_2
_ccdc_geom_bond_type
C24   N1    A    
C23   O5    A    
C36   H19   S    
C41   H31   S    
C35   H17   S    
C43   H35   S    
Cu1   N2    S    
C32   H9    S    
C19   C20   S    
C16   H15   S    
Cu2   O6    S    
C46   H43   S    
O13   C44   S    
C7    C8    A    
C23   O6    A    
C28   H10   S    
C26   C27   S    
C45   H40   S    
C38   H24   S    
Cu1   O5    S    
C14   C21   S    
C25   N2    A    
C5    C6    A    
C36   H20   S    
C3    C33   A    
C15   C16   A    
C18   C19   A    
Cu1   Cu2   S    
C16   C17   A    
C38   H25   S    
C21   O11   S    
O10   C37   S    
C1    C15   S    
Cu2   N1    S    
C2    C34   A    
C36   H18   S    
C35   C36   S    
C45   H41   S    
C22   C28   S    
Cu1   O1    S    
C20   O10   S    
C46   H42   S    
C17   C18   A    
C29   O8    A    
C38   H23   S    
C18   C23   S    
C24   C25   A    
Cu2   O4    S    
C25   H5    S    
C39   H27   S    
O11   C39   S    
C8    C9    A    
C28   H8    S    
C6    C34   A    
Cu1   O7    S    
C1    O1    A    
O9    C35   S    
C37   C38   S    
C20   H2    S    
C42   H34   S    
C31   C32   A    
C21   H3    S    
C29   O7    A    
C33   C34   A    
C17   H1    S    
C12   O3    A    
C13   H13   S    
C12   O4    A    
C40   H28   S    
C43   H37   S    
C44   H39   S    
C41   H32   S    
C10   H12   S    
C39   H26   S    
C3    C4    A    
C40   H30   S    
C26   N2    A    
C8    H14   S    
C42   C43   S    
C22   N1    A    
C9    O13   S    
Cu1   O3    S    
O12   C41   S    
C14   C19   A    
C4    C5    A    
C39   C40   S    
C11   C12   S    
C6    C7    A    
C45   C46   S    
C44   C45   S    
C40   H29   S    
C2    C30   A    
C32   C33   A    
C30   O9    S    
C1    O2    A    
C5    C10   A    
C29   C31   S    
Cu2   O2    S    
C11   C13   A    
C27   H6    S    
C42   H33   S    
C30   C31   A    
C24   H4    S    
C10   C11   A    
C35   H16   S    
C27   H7    S    
C7    C13   A    
C37   H21   S    
C20   C21   S    
C43   H36   S    
C44   H38   S    
C22   C26   A    
C41   C42   S    
C37   H22   S    
C27   C28   S    
C14   C15   A    
C2    C9    A    
C46   H44   S    
Cu2   O8    S    
C3    O12   S    
C4    H11   S    
