data_str_m2_o1_o4_f0_pcu.sym.36
_audit_creation_date              2012-10-26T18:54:55-0400
_audit_creation_method            fapswitch 2.2
_symmetry_space_group_name_H-M    P1
_symmetry_Int_Tables_number       1
_space_group_crystal_system       triclinic
_cell_length_a                    10.853506
_cell_length_b                    9.495881
_cell_length_c                    10.818965
_cell_angle_alpha                 89.976634
_cell_angle_beta                  90.060427
_cell_angle_gamma                 90.595382
_cell_volume                      1114.98058758

loop_
_atom_site_label
_atom_site_type_symbol
_atom_type_description
_atom_site_fract_x
_atom_site_fract_y
_atom_site_fract_z
_atom_type_partial_charge
C1    C     C_R   0.262305 0.499760 0.506922 0.543393
C2    C     C_R   0.488077 0.626069 0.936324 0.015679
C3    C     C_R   0.485657 0.499737 0.129107 0.007500
C4    C     C_R   0.485913 0.499646 0.870789 0.004842
C5    C     C_R   0.466026 0.373036 0.064412 -0.164733
C6    C     C_R   0.466119 0.373002 0.935529 -0.167024
C7    C     C_3   0.576468 0.747348 0.929551 -0.273052
C8    C     C_3   0.576820 0.746989 0.069894 -0.270048
C9    C     C_R   0.062878 0.377636 0.487160 -0.165964
C10   C     C_R   0.935759 0.378875 0.484026 -0.166438
C11   C     C_R   0.873012 0.506526 0.493510 0.009266
C12   C     C_R   0.738285 0.501615 0.495562 0.544249
C13   C     C_R   0.128485 0.500887 0.515685 0.014348
C14   C     C_R   0.940845 0.634979 0.507398 -0.001638
C15   C     C_R   0.064580 0.626077 0.544646 -0.000099
C16   C     C_3   0.890070 0.778816 0.470108 -0.235712
C17   C     C_3   0.853928 0.783141 0.332601 -0.280474
C18   C     C_3   0.800252 0.925850 0.297818 -0.448304
C19   C     C_3   0.121787 0.743414 0.623981 -0.244958
C20   C     C_3   0.170836 0.687773 0.747971 -0.278448
C21   C     C_3   0.227574 0.806590 0.824940 -0.446329
C22   C     C_R   0.430631 0.073696 0.416535 0.000623
C23   C     C_R   0.568997 0.075245 0.583764 -0.000117
C24   C     C_R   0.430739 0.924710 0.416447 -0.006574
C25   C     C_R   0.568600 0.926285 0.584075 -0.010227
C26   C     C_R   0.497789 0.499976 0.262155 0.548359
C27   C     C_R   0.498146 0.499927 0.737830 0.542430
C28   C     C_R   0.487846 0.626174 0.063432 0.014859
Cu1   Cu    Cu3+1 0.500000 0.640660 0.500000 0.907176
Cu2   Cu    Cu3+1 0.500000 0.359340 0.500000 0.918801
H1    H     H_    0.456469 0.273566 0.112684 0.126379
H2    H     H_    0.624487 0.132092 0.650615 0.109446
H3    H     H_    0.375224 0.867793 0.349654 0.110166
H4    H     H_    0.623504 0.870663 0.651363 0.099477
H5    H     H_    0.713594 0.944149 0.349474 0.176150
H6    H     H_    0.867118 0.011953 0.318857 0.141714
H7    H     H_    0.779605 0.928185 0.197353 0.132725
H8    H     H_    0.937201 0.764559 0.275332 0.148393
H9    H     H_    0.785475 0.699799 0.309497 0.182534
H10   H     H_    0.813452 0.810250 0.531343 0.161430
H11   H     H_    0.960757 0.863114 0.480121 0.116049
H12   H     H_    0.456626 0.273516 0.887325 0.130309
H13   H     H_    0.309243 0.851958 0.776865 0.166861
H14   H     H_    0.159190 0.890830 0.841028 0.139773
H15   H     H_    0.257034 0.764864 0.916003 0.146618
H16   H     H_    0.093651 0.638918 0.800798 0.150553
H17   H     H_    0.241786 0.606347 0.733831 0.180299
H18   H     H_    0.194075 0.802022 0.572284 0.172791
H19   H     H_    0.051584 0.822152 0.649813 0.118601
H20   H     H_    0.666541 0.718174 0.888434 0.131398
H21   H     H_    0.534789 0.842524 0.110769 0.131554
H22   H     H_    0.533443 0.842746 0.889376 0.125553
H23   H     H_    0.666943 0.716522 0.110119 0.131572
H24   H     H_    0.109590 0.279487 0.469148 0.128433
H25   H     H_    0.886918 0.280241 0.469075 0.130352
H26   H     H_    0.374963 0.129332 0.349854 0.104181
N1    N     N_R   0.500000 0.852070 0.500000 -0.226559
N2    N     N_R   0.500000 0.147940 0.500000 -0.221913
O1    O     O_R   0.319640 0.618740 0.499990 -0.508111
O2    O     O_R   0.680360 0.618740 0.500010 -0.509323
O3    O     O_R   0.319620 0.381170 0.499990 -0.507738
O4    O     O_R   0.680380 0.381170 0.500010 -0.504048
O5    O     O_R   0.499990 0.618810 0.319660 -0.503592
O6    O     O_R   0.500010 0.618810 0.680340 -0.504434
O7    O     O_R   0.499960 0.381240 0.319650 -0.509058
O8    O     O_R   0.500040 0.381240 0.680350 -0.509920

loop_
_geom_bond_atom_site_label_1
_geom_bond_atom_site_label_2
_ccdc_geom_bond_type
C8    H23   S    
C22   N2    A    
C23   N2    A    
C2    C4    A    
C26   O5    A    
Cu1   O5    S    
Cu1   Cu2   S    
C21   H14   S    
C12   O4    A    
C9    C10   A    
C19   H19   S    
C24   H3    S    
Cu1   O2    S    
C25   H4    S    
C11   C12   S    
C23   H2    S    
C4    C27   S    
C22   C24   A    
C1    O1    A    
C17   C18   S    
Cu1   O6    S    
C7    C8    S    
C27   O8    A    
C21   H13   S    
C2    C28   A    
C15   C19   S    
C10   H25   S    
C8    H21   S    
Cu2   O8    S    
C25   N1    A    
C16   H10   S    
Cu2   N2    S    
C18   H5    S    
C3    C28   A    
C18   H7    S    
Cu1   N1    S    
C7    H22   S    
C21   H15   S    
C17   H8    S    
C13   C15   A    
Cu2   O4    S    
C6    H12   S    
C5    C6    A    
C8    C28   S    
C11   C14   A    
C14   C16   S    
Cu2   O7    S    
C1    C13   S    
C10   C11   A    
C12   O2    A    
Cu1   O1    S    
C23   C25   A    
C20   C21   S    
C4    C6    A    
C17   H9    S    
Cu2   O3    S    
C27   O6    A    
C9    C13   A    
C14   C15   A    
C16   C17   S    
C22   H26   S    
C9    H24   S    
C2    C7    S    
C3    C5    A    
C19   H18   S    
C26   O7    A    
C18   H6    S    
C16   H11   S    
C3    C26   S    
C20   H16   S    
C20   H17   S    
C19   C20   S    
C7    H20   S    
C24   N1    A    
C5    H1    S    
C1    O3    A    
