data_str_m2_o1_o10_f0_pcu.sym.159
_audit_creation_date              2012-12-10T17:55:05-0500
_audit_creation_method            fapswitch 2.2
_symmetry_space_group_name_H-M    P1
_symmetry_Int_Tables_number       1
_space_group_crystal_system       triclinic
_cell_length_a                    8.793813
_cell_length_b                    10.784328
_cell_length_c                    9.592846
_cell_angle_alpha                 89.034698
_cell_angle_beta                  97.175221
_cell_angle_gamma                 90.528565
_cell_volume                      902.46533794

loop_
_atom_site_label
_atom_site_type_symbol
_atom_type_description
_atom_site_fract_x
_atom_site_fract_y
_atom_site_fract_z
_atom_type_partial_charge
C1    C     C_R   0.500570 0.262660 0.501071 0.870253
C2    C     C_R   0.499429 0.737340 0.498929 0.870240
C3    C     C_R   0.204805 0.496783 0.465050 0.788660
C4    C     C_R   0.795195 0.503215 0.534950 0.788660
C5    C     C_2   0.040208 0.480999 0.448574 0.219837
C6    C     C_2   0.959792 0.518997 0.551427 0.219835
C7    C     C_R   0.623742 0.065137 0.450799 0.262730
C8    C     C_R   0.376255 0.934864 0.549201 0.262745
C9    C     C_R   0.618402 0.935294 0.445749 0.357857
C10   C     C_R   0.381598 0.064706 0.554254 0.357850
C11   C     C_R   0.496290 0.871422 0.496233 -0.268801
C12   C     C_R   0.503707 0.128579 0.503768 -0.268799
C13   C     C_R   0.387320 0.440960 0.063937 -0.059308
C14   C     C_R   0.612680 0.559040 0.936063 -0.059311
C15   C     C_R   0.387028 0.439181 0.916585 0.507206
C16   C     C_R   0.612972 0.560818 0.083415 0.507208
Cu1   Cu    Cu3+1 0.500000 0.500020 0.640660 0.991674
Cu2   Cu    Cu3+1 0.500000 0.499980 0.359340 0.991687
H1    H     H_    0.297882 0.392474 0.110869 0.171015
H2    H     H_    0.702117 0.607527 0.889131 0.171019
N1    N     N_R   0.500040 0.500030 0.852080 -0.258282
N2    N     N_R   0.499960 0.499970 0.147920 -0.258282
O1    O     O_R   0.499990 0.319660 0.618740 -0.583937
O2    O     O_R   0.500010 0.680340 0.381260 -0.583920
O3    O     O_R   0.499990 0.319630 0.381170 -0.581508
O4    O     O_R   0.500010 0.680370 0.618830 -0.581527
O5    O     O_R   0.274840 0.500010 0.591370 -0.541582
O6    O     O_R   0.725160 0.499990 0.408630 -0.541578
O7    O     O_R   0.274830 0.499980 0.353800 -0.584241
O8    O     O_R   0.725170 0.500020 0.646200 -0.584240
O9    O     O_3   0.967207 0.430781 0.324907 -0.552005
C17   C     C_3   0.017219 0.307964 0.311153 -0.220025
H3    H     H_    0.023827 0.253939 0.411742 0.169217
H4    H     H_    0.129828 0.306685 0.270554 0.165645
H5    H     H_    0.933709 0.260315 0.233294 0.220808
O10   O     O_3   0.032794 0.569212 0.675095 -0.552000
C18   C     C_3   0.982790 0.692032 0.688846 -0.220042
H6    H     H_    0.870175 0.693318 0.729434 0.165644
H7    H     H_    0.976199 0.746057 0.588258 0.169205
H8    H     H_    0.066297 0.739676 0.766713 0.220799
O11   O     O_3   0.748197 0.126284 0.405945 -0.742840
H9    H     H_    0.757365 0.210563 0.445262 0.326463
O12   O     O_3   0.251790 0.873719 0.594038 -0.742863
H10   H     H_    0.242644 0.789430 0.554748 0.326470
O13   O     O_3   0.733550 0.867153 0.397684 -0.744283
H11   H     H_    0.811828 0.923059 0.364568 0.381640
O14   O     O_3   0.266446 0.132847 0.602315 -0.744294
H12   H     H_    0.188226 0.076939 0.635525 0.381642
O15   O     O_3   0.269710 0.373969 0.842482 -0.686478
H13   H     H_    0.308621 0.339623 0.759922 0.390300
O16   O     O_3   0.730292 0.626029 0.157518 -0.686468
H14   H     H_    0.691380 0.660377 0.240077 0.390305

loop_
_geom_bond_atom_site_label_1
_geom_bond_atom_site_label_2
_ccdc_geom_bond_type
O12   H10   S    
C8    O12   S    
C9    O13   S    
C18   H6    S    
O11   H9    S    
O14   H12   S    
C16   O16   S    
C17   H3    S    
C3    O5    A    
Cu1   Cu2   S    
C2    O4    A    
Cu2   O7    S    
Cu2   O3    S    
O13   H11   S    
C1    O3    A    
Cu1   O8    S    
C9    C11   A    
C3    O7    A    
Cu1   O1    S    
C1    C12   S    
C10   C12   A    
C8    C11   A    
Cu2   O2    S    
C2    C11   S    
C14   N1    A    
C4    C6    S    
O10   C18   S    
C4    O6    A    
C6    O10   S    
C13   N2    A    
C1    O1    A    
C18   H8    S    
C15   O15   S    
C13   C15   A    
C2    O2    A    
C5    C6    D    
C18   H7    S    
C14   C16   A    
C7    C12   A    
Cu1   O4    S    
O16   H14   S    
Cu1   O5    S    
C17   H5    S    
C14   H2    S    
C15   N1    A    
Cu2   O6    S    
C8    C10   A    
O15   H13   S    
C10   O14   S    
C7    C9    A    
C13   H1    S    
C16   N2    A    
C5    O9    S    
Cu2   N2    S    
C4    O8    A    
O9    C17   S    
C7    O11   S    
C17   H4    S    
C3    C5    S    
Cu1   N1    S    
