data_str_m2_o5_o22_f0_pcu.sym.51
_audit_creation_date              2012-10-26T20:33:43-0400
_audit_creation_method            fapswitch 2.2
_symmetry_space_group_name_H-M    P1
_symmetry_Int_Tables_number       1
_space_group_crystal_system       monoclinic
_cell_length_a                    10.808652
_cell_length_b                    9.08989
_cell_length_c                    7.781217
_cell_angle_alpha                 90.00787
_cell_angle_beta                  90.0
_cell_angle_gamma                 90.0
_cell_volume                      764.500343504

loop_
_atom_site_label
_atom_site_type_symbol
_atom_type_description
_atom_site_fract_x
_atom_site_fract_y
_atom_site_fract_z
_atom_type_partial_charge
C1    C     C_R   0.500000 0.220029 0.499987 0.520081
C2    C     C_1   0.500000 0.934649 0.500011 -0.040788
C3    C     C_3   0.070701 0.627894 0.548421 -0.250256
C4    C     C_3   0.929300 0.627895 0.548417 -0.250257
C5    C     C_3   0.121725 0.474683 0.496218 0.054523
C6    C     C_3   0.878275 0.474684 0.496218 0.054521
C7    C     C_R   0.259737 0.488584 0.499405 0.536334
C8    C     C_R   0.740263 0.488585 0.499405 0.536332
C9    C     C_R   0.500000 0.779984 0.500007 0.563963
C10   C     C_1   0.500000 0.065406 0.499984 -0.051615
C11   C     C_3   0.073597 0.356459 0.630757 0.368866
C12   C     C_3   0.073102 0.436439 0.308313 0.372870
C13   C     C_3   0.926403 0.356462 0.630760 0.368868
C14   C     C_3   0.926898 0.436437 0.308314 0.372866
Cu1   Cu    Cu3+1 0.500000 0.500010 0.669080 1.003951
Cu2   Cu    Cu3+1 0.500000 0.500010 0.330920 1.009793
H1    H     H_    0.104446 0.659518 0.678473 0.183385
H2    H     H_    0.104760 0.137041 0.690867 0.232534
H3    H     H_    0.216363 0.283658 0.263048 0.231512
H4    H     H_    0.102262 0.275271 0.121175 0.249409
H5    H     H_    0.781795 0.211879 0.576278 0.205931
H6    H     H_    0.895235 0.137047 0.690880 0.232534
H7    H     H_    0.783639 0.283651 0.263059 0.231510
H8    H     H_    0.897737 0.275264 0.121182 0.249404
H9    H     H_    0.104726 0.714246 0.458628 0.171594
H10   H     H_    0.895551 0.659525 0.678466 0.183382
H11   H     H_    0.895279 0.714245 0.458619 0.171597
H12   H     H_    0.189786 0.341557 0.828762 0.317659
H13   H     H_    0.170576 0.507404 0.105943 0.361885
H14   H     H_    0.810217 0.341570 0.828770 0.317658
H15   H     H_    0.829416 0.507395 0.105948 0.361880
H16   H     H_    0.218200 0.211873 0.576263 0.205930
N1    N     N_1   0.500000 0.499970 0.076820 -0.089431
N2    N     N_1   0.500000 0.499970 0.923180 -0.086287
N3    N     N_3   0.121918 0.208438 0.588176 -0.583066
N4    N     N_3   0.120440 0.290727 0.251843 -0.581866
N5    N     N_3   0.878077 0.208441 0.588187 -0.583071
N6    N     N_3   0.879562 0.290722 0.251850 -0.581863
O1    O     O_R   0.500000 0.288400 0.642760 -0.516659
O2    O     O_3   0.113776 0.548393 0.193787 -0.623129
O3    O     O_3   0.885860 0.397337 0.797504 -0.662129
O4    O     O_3   0.886222 0.548386 0.193783 -0.623125
O5    O     O_R   0.500000 0.288400 0.357240 -0.513984
O6    O     O_R   0.317700 0.499990 0.642790 -0.499369
O7    O     O_R   0.317700 0.499990 0.357210 -0.501913
O8    O     O_R   0.682300 0.499990 0.642790 -0.499372
O9    O     O_R   0.682300 0.499990 0.357210 -0.501915
O10   O     O_R   0.500000 0.711620 0.642810 -0.489667
O11   O     O_R   0.500000 0.711620 0.357190 -0.478873
O12   O     O_3   0.114144 0.397328 0.797501 -0.662136

loop_
_geom_bond_atom_site_label_1
_geom_bond_atom_site_label_2
_ccdc_geom_bond_type
Cu2   O7    S    
C12   O2    S    
H8    N6    S    
H14   O3    S    
C3    H1    S    
H15   O4    S    
Cu2   N1    S    
C6    C14   S    
H7    N6    S    
H2    N3    S    
Cu1   N2    S    
C13   N5    S    
C14   O4    S    
C13   O3    S    
N1    N2    T    
C8    O9    A    
C9    O11   A    
C11   O12   S    
C7    O6    A    
C6    C13   S    
C11   C13   S    
Cu2   O5    S    
Cu1   O1    S    
Cu1   O10   S    
C5    C12   S    
C7    O7    A    
H13   O2    S    
C11   N3    S    
C12   C14   S    
Cu1   O6    S    
C5    C11   S    
H3    N4    S    
C8    O8    A    
C4    H10   S    
C12   N4    S    
Cu1   Cu2   S    
C1    O1    A    
C14   N6    S    
C2    C10   T    
H16   N3    S    
C3    H9    S    
C4    H11   S    
H5    N5    S    
Cu2   O11   S    
Cu2   O9    S    
C9    O10   A    
C4    C6    S    
C5    C7    S    
C6    C8    S    
Cu1   O8    S    
C2    C9    S    
H6    N5    S    
H12   O12   S    
C1    O5    A    
C1    C10   S    
C3    C4    S    
C3    C5    S    
H4    N4    S    
