data_str_m2_o1_o12_f0_pcu.sym.191
_audit_creation_date              2012-12-10T17:55:52-0500
_audit_creation_method            fapswitch 2.2
_symmetry_space_group_name_H-M    P1
_symmetry_Int_Tables_number       1
_space_group_crystal_system       triclinic
_cell_length_a                    11.174268
_cell_length_b                    10.841834
_cell_length_c                    9.587585
_cell_angle_alpha                 92.103628
_cell_angle_beta                  100.418242
_cell_angle_gamma                 91.745964
_cell_volume                      1140.79886564

loop_
_atom_site_label
_atom_site_type_symbol
_atom_type_description
_atom_site_fract_x
_atom_site_fract_y
_atom_site_fract_z
_atom_type_partial_charge
C1    C     C_R   0.504878 0.262895 0.498745 0.871608
C2    C     C_R   0.496689 0.737786 0.501262 0.906738
C3    C     C_R   0.263968 0.504283 0.447064 0.896227
C4    C     C_R   0.735537 0.501992 0.554914 0.927451
C5    C     C_R   0.420298 0.422282 0.050124 0.496353
C6    C     C_R   0.579209 0.578032 0.949866 0.492056
C7    C     C_R   0.425067 0.421474 0.903667 -0.053620
C8    C     C_R   0.575338 0.577915 0.096430 -0.080951
C9    C     C_2   0.132486 0.520525 0.431185 -0.319926
C10   C     C_2   0.866574 0.495193 0.579470 -0.241773
C11   C     C_2   0.071425 0.540749 0.541490 0.331110
C12   C     C_2   0.940032 0.558197 0.507147 0.274008
C13   C     C_R   0.570755 0.059948 0.409145 0.432915
C14   C     C_R   0.431617 0.942821 0.588259 0.389525
C15   C     C_R   0.563743 0.931886 0.412526 -0.212665
C16   C     C_R   0.438152 0.070266 0.584655 -0.276804
C17   C     C_R   0.497261 0.872450 0.503182 -0.192000
C18   C     C_R   0.505888 0.129319 0.495936 -0.181994
Cu1   Cu    Cu3+1 0.500000 0.500020 0.640660 1.116277
Cu2   Cu    Cu3+1 0.500000 0.499980 0.359340 1.113388
H1    H     H_    0.904077 0.432237 0.660071 0.186509
H2    H     H_    0.082702 0.519467 0.322788 0.206956
H3    H     H_    0.365796 0.360439 0.828381 0.226866
H4    H     H_    0.634143 0.639257 0.171463 0.249945
H5    H     H_    0.611142 0.877910 0.344201 0.243275
H6    H     H_    0.386934 0.124555 0.648826 0.212497
N1    N     N_R   0.500030 0.500030 0.852080 -0.262552
N2    N     N_R   0.499970 0.499970 0.147920 -0.279840
O1    O     O_R   0.499990 0.319660 0.618740 -0.623212
O2    O     O_R   0.500010 0.680340 0.381260 -0.599265
O3    O     O_R   0.499990 0.319630 0.381170 -0.496587
O4    O     O_R   0.500010 0.680370 0.618830 -0.496538
O5    O     O_R   0.320690 0.500020 0.575130 -0.534246
O6    O     O_R   0.679310 0.499980 0.424870 -0.541190
O7    O     O_R   0.320680 0.499990 0.337560 -0.527309
O8    O     O_R   0.679320 0.500010 0.662440 -0.539906
S1    S     S_3+6 0.888571 0.667647 0.379418 0.043524
O9    O     O_2   0.853529 0.599543 0.238194 -0.241260
O10   O     O_2   0.781219 0.733727 0.415137 -0.309252
O11   O     O_3   0.001063 0.771872 0.369890 -0.467703
H7    H     H_    0.010613 0.822824 0.459440 0.382976
S2    S     S_3+6 0.131239 0.537984 0.728776 0.060716
O12   O     O_2   0.143550 0.405126 0.765612 -0.295037
O13   O     O_2   0.250928 0.606684 0.775674 -0.190642
O14   O     O_3   0.032591 0.602488 0.820452 -0.469074
H8    H     H_    0.071596 0.599267 0.921510 0.417485
S3    S     S_3+6 0.291223 0.334269 0.084948 0.092900
O15   O     O_2   0.308990 0.269721 0.221867 -0.256289
O16   O     O_2   0.187418 0.419723 0.081423 -0.270747
O17   O     O_3   0.250337 0.224201 0.955086 -0.482421
H9    H     H_    0.168358 0.193457 0.966282 0.406838
S4    S     S_3+6 0.708149 0.665970 0.915572 0.097477
O18   O     O_2   0.812094 0.580194 0.924783 -0.242769
O19   O     O_2   0.692944 0.727317 0.776679 -0.249856
O20   O     O_3   0.746169 0.778672 0.042929 -0.466918
H10   H     H_    0.830327 0.806154 0.036638 0.417451
S5    S     S_3+6 0.665615 0.128037 0.301017 0.064098
O21   O     O_2   0.742402 0.232003 0.383199 -0.321299
O22   O     O_2   0.747716 0.034025 0.253610 -0.214036
O23   O     O_3   0.577915 0.183032 0.157077 -0.475935
H11   H     H_    0.634525 0.232312 0.110690 0.368159
S6    S     S_3+6 0.328614 0.877082 0.686018 0.082221
O24   O     O_2   0.398458 0.816642 0.812549 -0.176435
O25   O     O_2   0.248351 0.782772 0.591578 -0.308895
O26   O     O_3   0.241110 0.984442 0.743496 -0.463316
H12   H     H_    0.182495 0.005421 0.657975 0.354713

loop_
_geom_bond_atom_site_label_1
_geom_bond_atom_site_label_2
_ccdc_geom_bond_type
S6    O25   D    
C11   C12   S    
C4    O8    A    
S1    O9    D    
C3    C9    S    
S1    O11   S    
C5    N2    A    
Cu1   N1    S    
C6    N1    A    
S4    O20   S    
C3    O7    A    
O20   H10   S    
Cu2   O6    S    
Cu1   Cu2   S    
C1    O1    A    
O17   H9    S    
C1    C18   S    
C7    N1    A    
S3    O16   D    
C16   C18   A    
Cu2   O2    S    
O14   H8    S    
C2    C17   S    
C5    S3    S    
C14   C17   A    
C9    C11   D    
S5    O21   D    
S6    O24   D    
S2    O13   D    
C13   C18   A    
C7    H3    S    
Cu1   O4    S    
C10   C12   D    
C2    O4    A    
O11   H7    S    
C8    H4    S    
S4    O19   D    
S3    O17   S    
C14   C16   A    
Cu1   O8    S    
C13   C15   A    
C10   H1    S    
C16   H6    S    
C8    N2    A    
C4    O6    A    
C9    H2    S    
C15   H5    S    
S5    O22   D    
S2    O12   D    
C3    O5    A    
C4    C10   S    
C14   S6    S    
C1    O3    A    
C13   S5    S    
S4    O18   D    
C11   S2    S    
S1    O10   D    
O26   H12   S    
Cu1   O5    S    
C12   S1    S    
C15   C17   A    
C5    C7    A    
C2    O2    A    
C6    C8    A    
Cu2   N2    S    
S6    O26   S    
C6    S4    S    
Cu2   O7    S    
Cu2   O3    S    
S3    O15   D    
O23   H11   S    
S5    O23   S    
S2    O14   S    
Cu1   O1    S    
