data_str_m2_o4_o13_f0_pcu.sym.50
_audit_creation_date              2013-03-05T16:30:59-0500
_audit_creation_method            fapswitch 2.2
_symmetry_space_group_name_H-M    P1
_symmetry_Int_Tables_number       1
_space_group_crystal_system       triclinic
_cell_length_a                    12.978468
_cell_length_b                    10.819635
_cell_length_c                    9.540725
_cell_angle_alpha                 89.55713
_cell_angle_beta                  95.006045
_cell_angle_gamma                 90.657933
_cell_volume                      1334.50158779

loop_
_atom_site_label
_atom_site_type_symbol
_atom_site_description
_atom_site_fract_x
_atom_site_fract_y
_atom_site_fract_z
_atom_type_partial_charge
O1    O     O_R   0.500000 0.319640 0.618810 -0.531982
O2    O     O_R   0.500010 0.319680 0.381230 -0.599928
C1    C     C_R   0.501992 0.262228 0.500531 0.812833
O3    O     O_R   0.348990 0.499960 0.599490 -0.538866
O4    O     O_R   0.349000 0.500000 0.361910 -0.591685
C2    C     C_R   0.301028 0.500808 0.475490 0.862518
Cu1   Cu    Cu3+1 0.499990 0.499980 0.640670 0.988513
Cu2   Cu    Cu3+1 0.500010 0.500020 0.359330 0.938752
O5    O     O_R   0.499990 0.680320 0.618770 -0.580059
O6    O     O_R   0.500000 0.680360 0.381190 -0.587074
O7    O     O_R   0.651000 0.500000 0.638090 -0.597070
O8    O     O_R   0.651010 0.500040 0.400510 -0.581301
C3    C     C_R   0.502654 0.737648 0.499858 0.804793
C4    C     C_R   0.698767 0.499419 0.524722 0.888297
C5    C     C_R   0.809886 0.512482 0.535143 -0.187845
C6    C     C_R   0.189271 0.491615 0.466050 -0.137958
C7    C     C_R   0.037127 0.371931 0.393321 -0.144531
C8    C     C_R   0.141869 0.394394 0.389425 -0.302069
C9    C     C_R   0.131797 0.569608 0.546477 0.466631
C10   C     C_R   0.022890 0.555957 0.538481 -0.106167
C11   C     C_R   0.976271 0.452207 0.465335 -0.058837
C12   C     C_R   0.869287 0.430977 0.463745 0.443871
C13   C     C_R   0.853695 0.617553 0.600379 -0.412787
C14   C     C_R   0.960241 0.641799 0.602743 0.522562
H1    H     H_    0.802942 0.683386 0.643442 0.165845
H2    H     H_    0.004274 0.291762 0.338245 0.185190
C15   C     C_R   0.515167 0.062310 0.627502 0.121296
C16   C     C_R   0.513009 0.129155 0.501612 -0.088845
C17   C     C_R   0.526786 0.065668 0.376463 -0.201782
H3    H     H_    0.531936 0.114762 0.277897 0.161633
C18   C     C_R   0.527281 0.936767 0.375981 -0.218597
H4    H     H_    0.532547 0.889542 0.277203 0.158822
C19   C     C_R   0.514142 0.870698 0.500690 -0.084396
C20   C     C_R   0.515950 0.935117 0.626991 0.112652
C21   C     C_3   0.445282 0.925069 0.741984 -0.493639
C22   C     C_3   0.443668 0.065231 0.741902 -0.416621
H5    H     H_    0.369217 0.882146 0.706676 0.227416
H6    H     H_    0.484474 0.884983 0.839951 0.194443
H7    H     H_    0.481170 0.105886 0.840434 0.214016
C23   C     C_R   0.545641 0.594739 0.078034 0.238294
N1    N     N_R   0.500660 0.500930 0.148010 -0.209417
C24   C     C_R   0.443491 0.415643 0.069293 -0.208853
H8    H     H_    0.402200 0.345855 0.124282 0.157188
C25   C     C_R   0.439850 0.417368 0.917990 0.565068
N2    N     N_R   0.500660 0.500890 0.852110 -0.226449
C26   C     C_R   0.546518 0.593971 0.931214 0.169610
C27   C     C_3   0.656961 0.634349 0.937945 -0.495907
C28   C     C_3   0.655870 0.636547 0.097148 -0.489576
H9    H     H_    0.708542 0.562343 0.901156 0.216302
H10   H     H_    0.666275 0.727625 0.890711 0.190645
H11   H     H_    0.707605 0.567090 0.151378 0.208566
H12   H     H_    0.663866 0.731227 0.141481 0.190819
O9    O     O_3   0.823777 0.324409 0.405028 -0.582077
C29   C     C_3   0.804591 0.338184 0.257403 -0.327985
H13   H     H_    0.828567 0.252450 0.206752 0.174284
H14   H     H_    0.846513 0.417025 0.210955 0.134918
H15   H     H_    0.720329 0.348055 0.229463 0.205689
H16   H     H_    0.366718 0.103337 0.705325 0.222529
O10   O     O_3   0.381313 0.333364 0.833768 -0.551320
C30   C     C_3   0.292297 0.289781 0.894656 -0.438860
H17   H     H_    0.237196 0.252187 0.809741 0.204607
H18   H     H_    0.251579 0.364444 0.946647 0.150481
H19   H     H_    0.312650 0.212856 0.969403 0.172320
O11   O     O_3   0.002971 0.754417 0.650127 -0.524057
C31   C     C_3   0.961361 0.795583 0.773425 -0.311778
H20   H     H_    0.947218 0.718582 0.847853 0.137039
H21   H     H_    0.889473 0.848443 0.745992 0.166449
H22   H     H_    0.018072 0.859707 0.829040 0.190215
H23   H     H_    0.187194 0.331749 0.332106 0.159189
O12   O     O_3   0.182863 0.661641 0.626676 -0.548444
C32   C     C_3   0.193900 0.623201 0.769226 -0.243979
H24   H     H_    0.235256 0.534354 0.783439 0.171931
H25   H     H_    0.118171 0.613374 0.814181 0.153143
H26   H     H_    0.240064 0.694088 0.831242 0.171373

loop_
_geom_bond_atom_site_label_1
_geom_bond_atom_site_label_2
_geom_bond_distance
_ccdc_geom_bond_type
N1    C24   1.365204 A    
C9    C10   1.414932 A    
Cu1   Cu2   2.684207 S    
C27   H9    1.111543 S    
O9    C29   1.415748 S    
C23   C26   1.401891 A    
C30   H19   1.110891 S    
C7    H2    1.081555 S    
Cu1   N2    2.016651 S    
C16   C17   1.407917 A    
C21   H5    1.112468 S    
C22   H16   1.111567 S    
O4    C2    1.296150 A    
O7    C4    1.292847 A    
C25   O10   1.392058 S    
C30   H18   1.113393 S    
C20   C21   1.492695 S    
O5    C3    1.291710 A    
C29   H13   1.109337 S    
C5    C12   1.397348 A    
C27   C28   1.520579 S    
C31   H21   1.110595 S    
C13   C14   1.402772 A    
C18   C19   1.405414 A    
O12   C32   1.414855 S    
C12   O9    1.388802 S    
C8    H23   1.084211 S    
C5    C13   1.391896 A    
O10   C30   1.412407 S    
C14   O11   1.394948 S    
C11   C12   1.403554 A    
C24   C25   1.440177 A    
O3    Cu1   1.964839 S    
C19   C20   1.395010 A    
C27   H10   1.111699 S    
C28   H11   1.108256 S    
C15   C20   1.376391 A    
C29   H14   1.116077 S    
C10   C14   1.418730 A    
C21   H6    1.111883 S    
Cu2   N1    2.016846 S    
O3    C2    1.287865 A    
C32   H25   1.109830 S    
N2    C26   1.362964 A    
C7    C11   1.403543 A    
C30   H17   1.109285 S    
O1    C1    1.294705 A    
C21   C22   1.516882 S    
Cu1   O7    1.962178 S    
C3    C19   1.445559 S    
C17   H3    1.083230 S    
O4    Cu2   1.962176 S    
C18   H4    1.083227 S    
Cu2   O8    1.964839 S    
C31   H22   1.109250 S    
C7    C8    1.381847 A    
Cu2   O6    1.963931 S    
C23   N1    1.364061 A    
O8    C4    1.288565 A    
C24   H8    1.079918 S    
C25   N2    1.376940 A    
Cu1   O5    1.960762 S    
C26   C27   1.489815 S    
C1    C16   1.448381 S    
O1    Cu1   1.963934 S    
C22   H7    1.111636 S    
O2    Cu2   1.960762 S    
O6    C3    1.292580 A    
C32   H26   1.109901 S    
C15   C22   1.493763 S    
O11   C31   1.413617 S    
O2    C1    1.291099 A    
C32   H24   1.108012 S    
C17   C18   1.394793 A    
C6    C9    1.407711 A    
C13   H1    1.082852 S    
C2    C6    1.447678 S    
C28   H12   1.111606 S    
C10   C11   1.426882 A    
C6    C8    1.392108 A    
C31   H20   1.114494 S    
C15   C16   1.395572 A    
C4    C5    1.442284 S    
C9    O12   1.387213 S    
C23   C28   1.491770 S    
C29   H15   1.108941 S    
