data_str_m2_o1_o14_f0_pcu.sym.189
_audit_creation_date              2013-03-05T16:04:07-0500
_audit_creation_method            fapswitch 2.2
_symmetry_space_group_name_H-M    P1
_symmetry_Int_Tables_number       1
_space_group_crystal_system       triclinic
_cell_length_a                    10.775908
_cell_length_b                    9.567004
_cell_length_c                    10.85804
_cell_angle_alpha                 90.029531
_cell_angle_beta                  90.767574
_cell_angle_gamma                 90.037565
_cell_volume                      1119.28875798

loop_
_atom_site_label
_atom_site_type_symbol
_atom_site_description
_atom_site_fract_x
_atom_site_fract_y
_atom_site_fract_z
_atom_type_partial_charge
O1    O     O_R   0.319640 0.618740 0.499990 -0.537120
O2    O     O_R   0.680360 0.618740 0.500010 -0.578324
O3    O     O_R   0.319620 0.381170 0.499990 -0.586130
O4    O     O_R   0.680380 0.381170 0.500010 -0.577492
C1    C     C_R   0.262437 0.499935 0.499879 0.864366
C2    C     C_R   0.737558 0.499754 0.501450 0.886252
O5    O     O_R   0.500000 0.618810 0.319650 -0.584484
O6    O     O_R   0.500000 0.618810 0.680350 -0.561885
O7    O     O_R   0.499970 0.381240 0.319640 -0.594140
O8    O     O_R   0.500030 0.381240 0.680360 -0.589021
C3    C     C_R   0.508522 0.500983 0.262317 0.773919
C4    C     C_R   0.490998 0.500732 0.737372 0.891651
Cu1   Cu    Cu3+1 0.500000 0.640660 0.500000 1.000986
Cu2   Cu    Cu3+1 0.500000 0.359340 0.500000 0.957495
H1    H     H_    0.510003 0.281309 0.110841 0.182743
H2    H     H_    0.505446 0.279197 0.888880 0.164877
C5    C     C_R   0.546597 0.762651 0.113254 -0.228311
C6    C     C_R   0.422072 0.754767 0.888537 -0.148589
H3    H     H_    0.603811 0.766932 0.195292 0.185074
H4    H     H_    0.367895 0.749537 0.804885 0.225199
C7    C     C_R   0.504269 0.888037 0.060790 0.194598
C8    C     C_R   0.429133 0.882240 0.953330 0.230415
C9    C     C_R   0.474394 0.631096 0.937901 0.037710
C10   C     C_R   0.514171 0.632912 0.061143 0.059082
C11   C     C_R   0.516755 0.505124 0.127475 -0.083708
C12   C     C_R   0.483483 0.503685 0.871699 -0.028072
C13   C     C_R   0.508990 0.379263 0.062994 -0.208130
C14   C     C_R   0.500482 0.378435 0.936071 -0.152589
C15   C     C_R   0.062380 0.437405 0.407230 -0.214353
C16   C     C_R   0.934010 0.438094 0.407926 -0.225077
H5    H     H_    0.110246 0.390568 0.330365 0.160998
H6    H     H_    0.883072 0.392410 0.331096 0.159465
C17   C     C_R   0.871482 0.498375 0.506516 -0.181231
C18   C     C_R   0.128605 0.499906 0.503743 -0.181777
C19   C     C_R   0.936939 0.555418 0.608249 0.244992
C20   C     C_R   0.067211 0.559936 0.604186 0.267273
C21   C     C_R   0.414718 0.074802 0.432117 -0.086266
C22   C     C_R   0.586539 0.075185 0.566164 -0.114618
H7    H     H_    0.347542 0.131716 0.376853 0.139176
H8    H     H_    0.655903 0.132325 0.618699 0.167044
C23   C     C_R   0.413645 0.925959 0.432105 0.309980
C24   C     C_R   0.585484 0.926460 0.569055 0.275498
N1    N     N_R   0.500000 0.852070 0.500000 -0.195547
N2    N     N_R   0.500000 0.147940 0.500000 -0.188658
N3    N     N_2   0.528736 0.018351 0.120000 -0.455335
H9    H     H_    0.454355 0.056241 0.168382 0.230273
C25   C     C_3   0.647319 0.036085 0.182941 -0.665650
H10   H     H_    0.664390 0.148543 0.201213 0.233333
H11   H     H_    0.723915 0.996316 0.125055 0.244841
H12   H     H_    0.647349 0.981463 0.273150 0.212257
N4    N     N_2   0.353425 0.998833 0.917532 -0.417674
H13   H     H_    0.350863 0.081355 0.978428 0.255117
C26   C     C_3   0.352087 0.042896 0.789956 -0.588528
H14   H     H_    0.279495 0.123942 0.776252 0.241994
H15   H     H_    0.330306 0.955694 0.726226 0.245262
H16   H     H_    0.442266 0.089982 0.766496 0.203181
N5    N     N_R   0.872633 0.595941 0.718367 0.124801
O9    O     O_R   0.914126 0.696991 0.787661 -0.313904
O10   O     O_R   0.780777 0.520777 0.757945 -0.393130
N6    N     N_R   0.137678 0.615864 0.705311 0.137437
O11   O     O_R   0.192311 0.532287 0.783298 -0.393526
O12   O     O_R   0.149912 0.750418 0.717395 -0.370016
N7    N     N_2   0.324658 0.853294 0.358787 -0.380411
H17   H     H_    0.338562 0.865396 0.265765 0.241317
C27   C     C_3   0.196578 0.877156 0.391428 -0.652427
H18   H     H_    0.136281 0.801175 0.341604 0.233845
H19   H     H_    0.167276 0.984533 0.365285 0.197170
H20   H     H_    0.183837 0.862132 0.491866 0.267256
N8    N     N_2   0.676894 0.854496 0.639875 -0.368441
H21   H     H_    0.759491 0.842545 0.594174 0.261267
C28   C     C_3   0.693824 0.896811 0.767345 -0.563590
H22   H     H_    0.693169 0.802774 0.827020 0.278822
H23   H     H_    0.619210 0.967138 0.798700 0.192121
H24   H     H_    0.783953 0.951983 0.779570 0.229065

loop_
_geom_bond_atom_site_label_1
_geom_bond_atom_site_label_2
_geom_bond_distance
_ccdc_geom_bond_type
H2    C14   1.080321 S    
C28   H24   1.111437 S    
O5    C3    1.291359 A    
O7    Cu2   1.969635 S    
N7    C27   1.447771 S    
C22   N2    1.361480 A    
C15   C16   1.383454 A    
C11   C13   1.394458 A    
C23   N1    1.375541 A    
H1    C13   1.071729 S    
C25   H10   1.108732 S    
C27   H19   1.110810 S    
C2    C17   1.443529 S    
O6    C4    1.292693 A    
C9    C10   1.399752 A    
C27   H20   1.110397 S    
C1    C18   1.443326 S    
O3    C1    1.292913 A    
C21   N2    1.363049 A    
C26   H15   1.106667 S    
C27   H18   1.110324 S    
C28   H22   1.109049 S    
C15   H5    1.083907 S    
Cu1   Cu2   2.691390 S    
C20   N6    1.430062 S    
N6    O12   1.300321 A    
C22   H8    1.081962 S    
O7    C3    1.307818 A    
C8    N4    1.433182 S    
N5    O9    1.300118 A    
O2    C2    1.294856 A    
O3    Cu2   1.955081 S    
O8    C4    1.304057 A    
C7    N3    1.425249 S    
O1    C1    1.292635 A    
C25   H11   1.111370 S    
C12   C14   1.398450 A    
C5    H3    1.077259 S    
C9    C12   1.418887 A    
C22   C24   1.423259 A    
C25   H12   1.110406 S    
C18   C20   1.405753 A    
N3    C25   1.450833 S    
O4    Cu2   1.954807 S    
N8    H21   1.031227 S    
C21   H7    1.081556 S    
N5    O10   1.300887 A    
C5    C10   1.405798 A    
O1    Cu1   1.954686 S    
C24   N1    1.377438 A    
C3    C11   1.468538 S    
O4    C2    1.290643 A    
C6    C9    1.413681 A    
C16   H6    1.084104 S    
O6    Cu1   1.969480 S    
N3    H9    1.030180 S    
Cu1   N1    2.022560 S    
N4    H13   1.030167 S    
C10   C11   1.419358 A    
C6    H4    1.074261 S    
Cu2   N2    2.022465 S    
C19   N5    1.442974 S    
O8    Cu2   1.969419 S    
C26   H16   1.103767 S    
C28   H23   1.105830 S    
C13   C14   1.379967 A    
N8    C28   1.450991 S    
O2    Cu1   1.954959 S    
C23   N7    1.419392 S    
N6    O11   1.300360 A    
O5    Cu1   1.969267 S    
C16   C17   1.397053 A    
C17   C19   1.411926 A    
C7    C8    1.412311 A    
C6    C8    1.409103 A    
C21   C23   1.424026 A    
C15   C18   1.394178 A    
C24   N8    1.420114 S    
C5    C7    1.402137 A    
C19   C20   1.405715 A    
C26   H14   1.110425 S    
C4    C12   1.462123 S    
N7    H17   1.029649 S    
N4    C26   1.448044 S    
