data_str_m2_o5_o29_f0_pcu.sym.10
_audit_creation_date              2013-03-05T16:36:12-0500
_audit_creation_method            fapswitch 2.2
_symmetry_space_group_name_H-M    P1
_symmetry_Int_Tables_number       1
_space_group_crystal_system       triclinic
_cell_length_a                    27.831557
_cell_length_b                    9.07948
_cell_length_c                    7.777103
_cell_angle_alpha                 89.865474
_cell_angle_beta                  89.997196
_cell_angle_gamma                 90.008345
_cell_volume                      1965.23788621

loop_
_atom_site_label
_atom_site_type_symbol
_atom_site_description
_atom_site_fract_x
_atom_site_fract_y
_atom_site_fract_z
_atom_type_partial_charge
O1    O     O_R   0.500000 0.288390 0.642760 -0.577076
O2    O     O_R   0.500000 0.711610 0.357240 -0.577115
O3    O     O_R   0.500000 0.711610 0.642760 -0.569835
O4    O     O_R   0.500000 0.288390 0.357240 -0.570022
C1    C     C_R   0.500042 0.220007 0.500123 0.852256
C2    C     C_R   0.500037 0.779993 0.499878 0.852511
O5    O     O_R   0.430260 0.500000 0.642770 -0.575333
O6    O     O_R   0.569740 0.500000 0.357230 -0.574812
O7    O     O_R   0.569740 0.500000 0.642770 -0.574771
O8    O     O_R   0.430260 0.500000 0.357230 -0.573403
C3    C     C_R   0.407468 0.500153 0.500001 0.785590
C4    C     C_R   0.592583 0.500005 0.499997 0.815221
Cu1   Cu    Cu3+1 0.500000 0.500000 0.669080 1.046477
Cu2   Cu    Cu3+1 0.500000 0.500000 0.330920 1.047016
C5    C     C_R   0.178120 0.454584 0.646715 0.506761
C6    C     C_R   0.822283 0.546384 0.357035 0.650355
C7    C     C_R   0.178257 0.545724 0.358875 0.526926
C8    C     C_R   0.822144 0.453560 0.644247 0.649910
O9    O     O_2   0.202978 0.410450 0.786657 -0.498456
O10   O     O_2   0.797454 0.591835 0.217591 -0.516831
O11   O     O_2   0.203238 0.589800 0.219170 -0.497327
O12   O     O_2   0.797180 0.408090 0.783392 -0.516887
N1    N     N_R   0.202198 0.500175 0.502922 -0.494645
N2    N     N_R   0.798175 0.499972 0.500500 -0.423935
C9    C     C_R   0.278845 0.626750 0.559260 0.003889
C10   C     C_R   0.721330 0.382263 0.421403 -0.047625
C11   C     C_R   0.278708 0.374437 0.442559 -0.004885
C12   C     C_R   0.721312 0.617803 0.578909 -0.047615
C13   C     C_R   0.329650 0.625662 0.559010 -0.087453
C14   C     C_R   0.670645 0.384077 0.420304 -0.139537
C15   C     C_R   0.329501 0.375389 0.441560 -0.087885
C16   C     C_R   0.670630 0.616008 0.579782 -0.139474
C17   C     C_R   0.253856 0.499951 0.503107 0.173413
C18   C     C_R   0.746525 0.500025 0.500234 0.307040
C19   C     C_R   0.102120 0.500159 0.502366 -0.042134
C20   C     C_R   0.898279 0.500007 0.501104 -0.031557
C21   C     C_R   0.127700 0.453616 0.649040 -0.020975
C22   C     C_R   0.872703 0.547036 0.354631 -0.019322
C23   C     C_R   0.127840 0.546711 0.355992 -0.024147
C24   C     C_R   0.872561 0.452942 0.647259 -0.019246
C25   C     C_R   0.102592 0.407074 0.794478 -0.147076
C26   C     C_R   0.897814 0.593812 0.209297 -0.141451
C27   C     C_R   0.102872 0.593256 0.210264 -0.147459
C28   C     C_R   0.897530 0.406175 0.792893 -0.141243
C29   C     C_R   0.354629 0.500487 0.499975 -0.165926
C30   C     C_R   0.645487 0.500038 0.500007 -0.090255
H1    H     H_    0.121439 0.370642 0.908850 0.195538
H2    H     H_    0.878972 0.630531 0.095035 0.197343
H3    H     H_    0.121828 0.629709 0.096116 0.193829
H4    H     H_    0.878577 0.369419 0.906917 0.197524
C31   C     C_R   0.974567 0.452342 0.650724 0.041211
C32   C     C_R   0.025834 0.547720 0.352708 0.041493
C33   C     C_R   0.974711 0.547790 0.352436 0.041123
C34   C     C_R   0.025690 0.452509 0.651095 0.041436
C35   C     C_R   0.949417 0.500048 0.501423 0.076633
C36   C     C_R   0.050982 0.500131 0.502056 0.073350
C37   C     C_R   0.947386 0.405753 0.795020 -0.212656
C38   C     C_R   0.053016 0.593947 0.208256 -0.219545
C39   C     C_R   0.947671 0.594298 0.207784 -0.212633
C40   C     C_R   0.052733 0.406353 0.795895 -0.220627
H5    H     H_    0.963257 0.367781 0.913097 0.148357
H6    H     H_    0.037144 0.631709 0.090088 0.147742
H7    H     H_    0.963657 0.632240 0.089880 0.148217
H8    H     H_    0.036747 0.368629 0.913893 0.147970
C41   C     C_1   0.500065 0.065390 0.500175 -0.119223
C42   C     C_1   0.500062 0.934609 0.499831 -0.119176
N3    N     N_1   0.500000 0.500000 0.076820 -0.033144
N4    N     N_1   0.500000 0.500000 0.923180 -0.033115
C43   C     C_1   0.356482 0.246276 0.389056 0.378468
N5    N     N_1   0.378125 0.143493 0.347460 -0.232721
C44   C     C_1   0.643979 0.737300 0.655150 0.228909
N6    N     N_1   0.622686 0.833944 0.715001 -0.258020
C45   C     C_1   0.356817 0.751821 0.619479 0.374758
N7    N     N_1   0.378622 0.852179 0.667583 -0.234516
C46   C     C_1   0.644004 0.262807 0.344811 0.228906
N8    N     N_1   0.622717 0.166179 0.284857 -0.257985
C47   C     C_2   0.250255 0.244560 0.382232 0.488786
H9    H     H_    0.212404 0.235269 0.413442 0.071268
O13   O     O_2   0.268032 0.147726 0.294185 -0.493490
C48   C     C_2   0.747347 0.743748 0.660459 0.440898
H10   H     H_    0.729294 0.813087 0.753654 0.093994
O14   O     O_2   0.788730 0.774311 0.622659 -0.524422
C49   C     C_2   0.250516 0.757996 0.616340 0.463481
H11   H     H_    0.212464 0.747801 0.643707 0.075619
O15   O     O_2   0.268616 0.879848 0.630142 -0.507845
C50   C     C_2   0.747379 0.256286 0.339998 0.441155
H12   H     H_    0.729320 0.186736 0.247021 0.093981
O16   O     O_2   0.788784 0.225929 0.377655 -0.524522

loop_
_geom_bond_atom_site_label_1
_geom_bond_atom_site_label_2
_geom_bond_distance
_ccdc_geom_bond_type
C38   H6    1.075101 S    
O5    Cu1   1.951738 S    
C45   N7    1.157581 T    
O3    C2    1.271629 A    
C33   C39   1.417107 A    
C34   C40   1.417114 A    
C47   H9    1.084259 S    
C11   C17   1.414769 A    
O5    C3    1.278781 A    
C7    N1    1.366745 A    
O1    C1    1.272511 A    
C19   C21   1.408720 A    
C22   C26   1.394241 A    
C48   H10   1.084574 S    
C50   O16   1.220449 D    
C13   C45   1.451619 S    
C7    C23   1.403399 A    
O7    Cu1   1.951715 S    
C5    C21   1.403420 A    
C20   C24   1.408711 A    
C8    C24   1.403392 A    
C27   C38   1.387677 A    
C5    O9    1.349740 S    
C10   C18   1.419048 A    
N1    C17   1.437706 S    
Cu2   N3    1.976161 S    
C31   C37   1.417100 A    
C24   C28   1.394251 A    
O3    Cu1   1.931704 S    
C6    O10   1.349791 S    
C47   O13   1.220489 D    
C12   C18   1.419008 A    
C6    N2    1.367590 A    
Cu1   Cu2   2.629906 S    
C21   C25   1.394211 A    
O2    C2    1.272518 A    
C12   C48   1.496025 S    
C16   C44   1.452494 S    
C33   C35   1.422503 A    
C9    C13   1.414028 A    
C34   C36   1.422482 A    
C11   C15   1.413705 A    
N3    N4    1.194875 T    
C12   C16   1.410672 A    
C1    C41   1.403839 S    
O8    Cu2   1.951718 S    
C50   H12   1.084577 S    
C27   H3    1.083735 S    
C23   C27   1.394220 A    
C10   C50   1.496093 S    
N2    C18   1.437491 S    
C13   C29   1.410121 A    
C19   C23   1.408716 A    
C46   N8    1.157538 T    
C49   H11   1.084124 S    
C2    C42   1.403832 S    
C28   C37   1.387664 A    
O6    C4    1.279482 A    
C25   H1    1.083725 S    
C26   H2    1.083745 S    
C32   C38   1.417093 A    
C4    C30   1.472381 S    
C49   O15   1.220526 D    
C10   C14   1.410756 A    
C8    N2    1.367597 A    
C3    C29   1.470584 S    
O1    Cu1   1.932661 S    
C32   C33   1.422815 A    
C28   H4    1.083749 S    
O6    Cu2   1.951735 S    
C19   C36   1.423252 A    
C8    O12   1.349795 S    
C16   C30   1.409322 A    
C14   C30   1.409345 A    
C25   C40   1.387717 A    
O4    C1    1.271636 A    
C11   C47   1.496710 S    
C26   C39   1.387662 A    
C37   H5    1.075102 S    
C39   H7    1.075103 S    
C40   H8    1.075109 S    
C31   C34   1.422831 A    
C20   C22   1.408724 A    
C44   N6    1.157522 T    
C20   C35   1.423272 A    
C14   C46   1.452484 S    
C5    N1    1.366998 A    
C48   O14   1.220451 D    
C31   C35   1.422519 A    
O4    Cu2   1.931705 S    
C43   N5    1.157569 T    
O2    Cu2   1.932660 S    
O7    C4    1.279465 A    
C7    O11   1.349755 S    
O8    C3    1.278751 A    
C15   C43   1.451649 S    
C41   C42   1.187430 T    
C15   C29   1.409896 A    
C9    C17   1.414921 A    
C9    C49   1.497137 S    
C32   C36   1.422495 A    
C6    C22   1.403402 A    
Cu1   N4    1.976161 S    
