data_str_m2_o1_o18_f0_pcu.sym.151
_audit_creation_date              2012-12-10T17:58:18-0500
_audit_creation_method            fapswitch 2.2
_symmetry_space_group_name_H-M    P1
_symmetry_Int_Tables_number       1
_space_group_crystal_system       triclinic
_cell_length_a                    9.508647
_cell_length_b                    10.826681
_cell_length_c                    15.786084
_cell_angle_alpha                 89.718332
_cell_angle_beta                  73.395852
_cell_angle_gamma                 90.052419
_cell_volume                      1557.3430862

loop_
_atom_site_label
_atom_site_type_symbol
_atom_type_description
_atom_site_fract_x
_atom_site_fract_y
_atom_site_fract_z
_atom_type_partial_charge
C1    C     C_R   0.999888 0.262052 0.500085 0.786632
C2    C     C_R   0.000087 0.737948 0.499969 0.786435
C3    C     C_R   0.572627 0.430294 0.087456 -0.248147
C4    C     C_R   0.425381 0.558450 0.911305 -0.239900
C5    C     C_R   0.719025 0.410480 0.042156 -0.140163
C6    C     C_R   0.278736 0.577201 0.956668 -0.175715
C7    C     C_R   0.871755 0.063740 0.500841 -0.182966
C8    C     C_R   0.128149 0.936261 0.499364 -0.183983
C9    C     C_R   0.871862 0.936005 0.500739 -0.187615
C10   C     C_R   0.128042 0.063997 0.499464 -0.187787
C11   C     C_R   0.000062 0.871779 0.499998 -0.015342
C12   C     C_R   0.999863 0.128222 0.500161 -0.015130
C13   C     C_R   0.559294 0.400575 0.531309 0.008644
C14   C     C_R   0.440800 0.599299 0.468459 0.007733
C15   C     C_R   0.410389 0.400906 0.531852 -0.023045
C16   C     C_R   0.589641 0.599057 0.468078 -0.020666
C17   C     C_R   0.916447 0.491182 0.671372 0.833312
C18   C     C_R   0.083591 0.508005 0.328558 0.832860
C19   C     C_R   0.866326 0.470112 0.767790 -0.156767
C20   C     C_R   0.133668 0.525786 0.231866 -0.171113
C21   C     C_R   0.920579 0.418758 0.905637 0.487893
C22   C     C_R   0.078653 0.569430 0.093779 0.475812
C23   C     C_R   0.968474 0.450705 0.815234 -0.355308
C24   C     C_R   0.031221 0.543013 0.184365 -0.318051
C25   C     C_R   0.715280 0.461289 0.812659 -0.082540
C26   C     C_R   0.284903 0.531857 0.186367 -0.089321
C27   C     C_R   0.668894 0.468937 0.905249 -0.052416
C28   C     C_R   0.330481 0.522066 0.093735 -0.042255
C29   C     C_R   0.770679 0.434551 0.951494 0.070451
C30   C     C_R   0.228232 0.554713 0.047473 0.056954
C31   C     C_R   0.523027 0.503139 0.953026 0.094644
C32   C     C_R   0.475789 0.486824 0.045807 0.085065
Cu1   Cu    Cu3+1 0.140660 0.500020 0.500000 0.952442
Cu2   Cu    Cu3+1 0.859340 0.499980 0.500000 0.953824
H1    H     H_    0.791013 0.374225 0.078466 0.195437
H2    H     H_    0.205683 0.611820 0.920503 0.184155
H3    H     H_    0.914694 0.543623 0.218046 0.181875
H4    H     H_    0.084498 0.453564 0.780894 0.166629
H5    H     H_    0.536883 0.400532 0.155679 0.162220
H6    H     H_    0.460421 0.587846 0.843010 0.160416
H7    H     H_    0.771541 0.111682 0.501433 0.142513
H8    H     H_    0.228360 0.888320 0.498777 0.142362
H9    H     H_    0.771696 0.887860 0.501278 0.142532
H10   H     H_    0.228207 0.112142 0.498929 0.142606
H11   H     H_    0.602670 0.320739 0.556552 0.132949
H12   H     H_    0.397577 0.678914 0.442849 0.130546
H13   H     H_    0.342328 0.321733 0.558168 0.118842
H14   H     H_    0.657732 0.678196 0.441718 0.118718
N1    N     N_R   0.352080 0.500030 0.499980 -0.163434
N2    N     N_R   0.647920 0.499970 0.500020 -0.163492
O1    O     O_R   0.118740 0.319660 0.500000 -0.598097
O2    O     O_R   0.881260 0.680340 0.500000 -0.597997
O3    O     O_R   0.881170 0.319630 0.500010 -0.596408
O4    O     O_R   0.118830 0.680370 0.499990 -0.596687
O5    O     O_R   0.055570 0.500030 0.629830 -0.581102
O6    O     O_R   0.944430 0.499970 0.370170 -0.580522
O7    O     O_R   0.818000 0.500000 0.629840 -0.568480
O8    O     O_R   0.182000 0.500000 0.370160 -0.568828
C33   C     C_1   0.388993 0.578657 0.230246 0.281327
N3    N     N_1   0.472953 0.616696 0.264142 -0.324107
C34   C     C_1   0.613095 0.413139 0.767918 0.271988
N4    N     N_1   0.530632 0.374017 0.733333 -0.343305
O9    O     O_3   0.017393 0.383158 0.952804 -0.597620
C35   C     C_3   0.125708 0.300388 0.904873 0.038828
H15   H     H_    0.216895 0.353185 0.859182 0.172757
H16   H     H_    0.079758 0.232618 0.866737 0.131555
C36   C     C_3   0.187199 0.228752 0.969999 -0.311856
H17   H     H_    0.228856 0.294446 0.011050 0.236608
H18   H     H_    0.098110 0.172669 0.014595 0.210406
C37   C     C_3   0.312131 0.143627 0.922119 -0.916272
H19   H     H_    0.273250 0.076319 0.880856 0.252526
H20   H     H_    0.352560 0.091910 0.971379 0.254296
H21   H     H_    0.404484 0.198467 0.879500 0.272473
O10   O     O_3   0.976828 0.597421 0.049285 -0.591214
C38   C     C_3   0.935091 0.722200 0.064394 0.020888
H22   H     H_    0.032628 0.783868 0.040635 0.136144
H23   H     H_    0.881950 0.738875 0.136031 0.147556
C39   C     C_3   0.824955 0.753175 0.013423 -0.294646
H24   H     H_    0.874421 0.732854 0.942119 0.221614
H25   H     H_    0.725418 0.694662 0.038386 0.234973
C40   C     C_3   0.780238 0.888843 0.023718 -0.928092
H26   H     H_    0.728560 0.910714 0.094468 0.259051
H27   H     H_    0.699739 0.907915 0.986370 0.258948
H28   H     H_    0.877588 0.949290 0.997315 0.253952

loop_
_geom_bond_atom_site_label_1
_geom_bond_atom_site_label_2
_ccdc_geom_bond_type
Cu1   O5    S    
Cu2   O6    S    
Cu1   O8    S    
C27   C29   A    
C10   H10   S    
C15   H13   S    
C16   H14   S    
C40   H26   S    
C14   H12   S    
C8    H8    S    
C39   H25   S    
C14   N1    A    
Cu1   N1    S    
C38   H23   S    
C1    O3    A    
C18   O8    A    
C20   C24   A    
Cu2   O7    S    
C37   H19   S    
C26   C33   S    
C17   O5    A    
C18   C20   S    
C18   O6    A    
C7    H7    S    
C3    H5    S    
C33   N3    T    
C3    C32   A    
C1    C12   S    
C2    C11   S    
C10   C12   A    
C40   H27   S    
C24   H3    S    
C5    C29   A    
C7    C12   A    
Cu2   N2    S    
C9    H9    S    
O10   C38   S    
C27   C31   A    
C36   H17   S    
C35   C36   S    
C4    H6    S    
C28   C32   A    
C4    C6    A    
C2    O4    A    
C39   H24   S    
C21   C29   A    
C13   N2    A    
C36   H18   S    
C35   H16   S    
C19   C23   A    
C38   H22   S    
C9    C11   A    
C31   C32   A    
C37   H21   S    
Cu1   Cu2   S    
C25   C34   S    
C1    O1    A    
C2    O2    A    
C6    C30   A    
C13   C15   A    
C14   C16   A    
C25   C27   A    
C22   O10   S    
C40   H28   S    
Cu1   O4    S    
C7    C9    A    
C22   C30   A    
Cu2   O2    S    
C16   N2    A    
C3    C5    A    
Cu1   O1    S    
C23   H4    S    
C26   C28   A    
C36   C37   S    
C35   H15   S    
C21   C23   A    
C13   H11   S    
C39   C40   S    
C20   C26   A    
C8    C11   A    
C5    H1    S    
C28   C30   A    
C17   C19   S    
C6    H2    S    
C22   C24   A    
C15   N1    A    
C34   N4    T    
C19   C25   A    
C38   C39   S    
C21   O9    S    
C4    C31   A    
O9    C35   S    
Cu2   O3    S    
C8    C10   A    
C37   H20   S    
C17   O7    A    
