data_str_m2_o1_o28_f0_pcu.sym.53
_audit_creation_date              2012-10-26T20:43:34-0400
_audit_creation_method            fapswitch 2.2
_symmetry_space_group_name_H-M    P1
_symmetry_Int_Tables_number       1
_space_group_crystal_system       triclinic
_cell_length_a                    10.864131
_cell_length_b                    9.489298
_cell_length_c                    23.523121
_cell_angle_alpha                 89.713871
_cell_angle_beta                  91.104525
_cell_angle_gamma                 90.431604
_cell_volume                      2424.52066279

loop_
_atom_site_label
_atom_site_type_symbol
_atom_type_description
_atom_site_fract_x
_atom_site_fract_y
_atom_site_fract_z
_atom_type_partial_charge
C1    C     C_R   0.262110 0.499306 0.499936 0.599228
C2    C     C_R   0.549167 0.617980 0.700683 -0.177575
C3    C     C_R   0.459993 0.372243 0.239269 0.310959
C4    C     C_R   0.553051 0.621985 0.760040 0.314806
C5    C     C_R   0.482106 0.496431 0.208560 0.205201
C6    C     C_R   0.513538 0.504290 0.791203 0.196336
C7    C     C_R   0.061834 0.391978 0.471277 0.213550
C8    C     C_R   0.938200 0.608058 0.528581 0.213887
C9    C     C_R   0.933312 0.397921 0.468621 0.206004
C10   C     C_R   0.066700 0.601953 0.531323 0.204309
C11   C     C_R   0.871718 0.502308 0.499187 -0.058799
C12   C     C_R   0.737892 0.500690 0.500012 0.593463
C13   C     C_R   0.128291 0.497672 0.500714 -0.056400
C14   C     C_R   0.578279 0.075551 0.466209 0.016591
C15   C     C_R   0.421815 0.924437 0.533847 0.004442
C16   C     C_R   0.421834 0.073456 0.533835 0.004455
C17   C     C_R   0.578381 0.926550 0.466311 0.027435
C18   C     C_R   0.499610 0.500421 0.390750 0.558717
C19   C     C_R   0.500021 0.499577 0.609166 0.571020
C20   C     C_R   0.618364 0.501231 0.883022 0.447646
C21   C     C_R   0.379347 0.519098 0.116918 0.420371
C22   C     C_R   0.399866 0.522978 0.877683 0.382369
C23   C     C_R   0.508678 0.622147 0.236964 -0.104069
C24   C     C_R   0.595352 0.478093 0.122286 0.419721
C25   C     C_R   0.393636 0.534645 0.937137 -0.022463
C26   C     C_R   0.605101 0.495497 0.063086 -0.017415
C27   C     C_R   0.502359 0.516168 0.970056 -0.144400
C28   C     C_R   0.496478 0.512154 0.030045 -0.143022
C29   C     C_R   0.616731 0.501240 0.943037 -0.015993
C30   C     C_R   0.381792 0.522948 0.056966 -0.011701
C31   C     C_R   0.281460 0.562118 0.964591 0.280960
C32   C     C_R   0.720221 0.497515 0.036158 0.273204
C33   C     C_R   0.273641 0.540651 0.023393 0.280177
C34   C     C_R   0.467503 0.385194 0.762914 -0.102532
C35   C     C_R   0.725546 0.488684 0.976702 0.274186
C36   C     C_3   0.194978 0.745030 0.913153 0.060300
C37   C     C_3   0.125322 0.851978 0.948338 -0.282408
C38   C     C_3   0.150433 0.002758 0.928511 -0.489136
C39   C     C_3   0.847569 0.641965 0.089485 0.054220
C40   C     C_3   0.893791 0.744907 0.044292 -0.264878
C41   C     C_3   0.928553 0.887133 0.070349 -0.497708
C42   C     C_3   0.122573 0.391924 0.050168 -0.052364
C43   C     C_3   0.868884 0.332269 0.949432 -0.051044
C44   C     C_3   0.672602 0.777513 0.319842 -0.111156
C45   C     C_R   0.518060 0.625358 0.296315 0.241787
C46   C     C_3   0.446158 0.136644 0.696395 -0.119967
C47   C     C_3   0.317756 0.202591 0.217790 -0.107079
C48   C     C_3   0.502599 0.836919 0.793194 -0.120511
C49   C     C_3   0.116855 0.160946 0.469824 -0.066663
C50   C     C_3   0.883420 0.839134 0.529699 -0.063538
C51   C     C_3   0.848375 0.354085 0.381580 -0.095340
C52   C     C_3   0.151246 0.645136 0.618495 -0.086277
C53   C     C_R   0.463002 0.379919 0.703023 0.242059
C54   C     C_R   0.495610 0.500874 0.327924 -0.037504
C55   C     C_R   0.503169 0.498862 0.671860 -0.030263
C56   C     C_R   0.468722 0.374680 0.298839 -0.182567
Cu1   Cu    Cu3+1 0.500000 0.640660 0.500000 0.992696
Cu2   Cu    Cu3+1 0.500000 0.359340 0.500000 0.994884
H1    H     H_    0.524813 0.717529 0.212634 0.131679
H2    H     H_    0.293486 0.778656 0.910780 0.096856
H3    H     H_    0.025046 0.830335 0.943832 0.184537
H4    H     H_    0.153971 0.841829 0.993773 0.179665
H5    H     H_    0.249854 0.028928 0.933647 0.150979
H6    H     H_    0.097009 0.077270 0.954456 0.132792
H7    H     H_    0.122196 0.015877 0.883166 0.162206
H8    H     H_    0.918420 0.634346 0.124042 0.191269
H9    H     H_    0.763480 0.684976 0.109212 0.122323
H10   H     H_    0.975176 0.698753 0.024023 0.251025
H11   H     H_    0.821074 0.761575 0.011136 0.162214
H12   H     H_    0.432279 0.298765 0.788126 0.125070
H13   H     H_    0.848604 0.932478 0.092407 0.159539
H14   H     H_    0.956670 0.961644 0.036394 0.139531
H15   H     H_    0.006559 0.874841 0.101156 0.168859
H16   H     H_    0.033734 0.383807 0.072142 0.196636
H17   H     H_    0.189574 0.327274 0.075231 0.107013
H18   H     H_    0.110164 0.346942 0.006867 0.110818
H19   H     H_    0.957664 0.321458 0.927419 0.162266
H20   H     H_    0.798367 0.271560 0.924573 0.117138
H21   H     H_    0.880072 0.285805 0.992728 0.103781
H22   H     H_    0.703492 0.783961 0.275056 0.117179
H23   H     H_    0.454789 0.277482 0.322244 0.152471
H24   H     H_    0.725659 0.695754 0.343691 0.100253
H25   H     H_    0.693660 0.880878 0.339700 0.126750
H26   H     H_    0.389461 0.107155 0.733430 0.106515
H27   H     H_    0.546150 0.135290 0.707890 0.125515
H28   H     H_    0.430197 0.054797 0.663527 0.125588
H29   H     H_    0.251141 0.286285 0.205163 0.150306
H30   H     H_    0.302085 0.167844 0.262286 0.123389
H31   H     H_    0.299406 0.110669 0.189852 0.144137
H32   H     H_    0.431063 0.795588 0.822184 0.128958
H33   H     H_    0.460137 0.864472 0.751222 0.084633
H34   H     H_    0.582034 0.708839 0.677197 0.155209
H35   H     H_    0.540634 0.935300 0.812062 0.134835
H36   H     H_    0.144287 0.171288 0.515509 0.103453
H37   H     H_    0.182076 0.086973 0.450223 0.141479
H38   H     H_    0.023412 0.113283 0.465964 0.145850
H39   H     H_    0.818334 0.913432 0.549198 0.140911
H40   H     H_    0.855965 0.828445 0.484027 0.087917
H41   H     H_    0.976954 0.886602 0.533482 0.148841
H42   H     H_    0.792861 0.452114 0.382291 0.091730
H43   H     H_    0.795566 0.275253 0.356174 0.137272
H44   H     H_    0.937053 0.373838 0.359886 0.151051
H45   H     H_    0.640850 0.132657 0.439115 0.142036
H46   H     H_    0.204872 0.723265 0.643905 0.127782
H47   H     H_    0.205748 0.546293 0.617789 0.118341
H48   H     H_    0.062394 0.626578 0.640193 0.162934
H49   H     H_    0.359409 0.867308 0.561015 0.141451
H50   H     H_    0.359344 0.128995 0.560895 0.136378
H51   H     H_    0.641374 0.870929 0.439633 0.113196
H52   H     H_    0.157315 0.748306 0.868917 0.188813
N1    N     N_R   0.510853 0.509399 0.852130 -0.392425
N2    N     N_R   0.484789 0.494757 0.147741 -0.380090
N3    N     N_R   0.500000 0.852070 0.500000 -0.224552
N4    N     N_R   0.500000 0.147930 0.500000 -0.229320
O1    O     O_R   0.319640 0.618740 0.500000 -0.472009
O2    O     O_2   0.273556 0.541682 0.144441 -0.473419
O3    O     O_2   0.295862 0.522747 0.845386 -0.482118
O4    O     O_2   0.695050 0.443863 0.154437 -0.466764
O5    O     O_3   0.176883 0.606231 0.934867 -0.491717
O6    O     O_3   0.829953 0.504581 0.066999 -0.532231
O7    O     O_3   0.158747 0.535071 0.047407 -0.515057
O8    O     O_3   0.839396 0.476662 0.951959 -0.486558
O9    O     O_3   0.544857 0.751672 0.323052 -0.538316
O10   O     O_3   0.408160 0.267800 0.673922 -0.553075
O11   O     O_3   0.440565 0.247151 0.210411 -0.539523
O12   O     O_R   0.680360 0.381260 0.500000 -0.473758
O13   O     O_3   0.599097 0.739790 0.787639 -0.522582
O14   O     O_3   0.123076 0.291001 0.440522 -0.536763
O15   O     O_3   0.876999 0.709343 0.559183 -0.529590
O16   O     O_3   0.868099 0.299218 0.436803 -0.561886
O17   O     O_3   0.131930 0.700344 0.563293 -0.563553
O18   O     O_R   0.680360 0.618740 0.500000 -0.491060
O19   O     O_R   0.319640 0.381260 0.500000 -0.482677
O20   O     O_R   0.499960 0.618810 0.417880 -0.452852
O21   O     O_R   0.500040 0.381190 0.582120 -0.455252
O22   O     O_R   0.500040 0.618810 0.582120 -0.521728
O23   O     O_R   0.499960 0.381190 0.417880 -0.517194
O24   O     O_2   0.725704 0.492060 0.855461 -0.417513

loop_
_geom_bond_atom_site_label_1
_geom_bond_atom_site_label_2
_ccdc_geom_bond_type
C25   C31   A    
C22   O3    S    
C20   O24   S    
C26   C32   A    
C23   C45   A    
C27   C29   A    
C6    N1    S    
Cu1   O18   S    
C24   N2    A    
C44   H25   S    
C37   H4    S    
C14   H45   S    
C17   N3    A    
C56   H23   S    
Cu1   O1    S    
C9    O16   S    
C45   O9    S    
C43   H20   S    
C23   H1    S    
C50   H41   S    
C36   C37   S    
C24   C26   A    
C44   H24   S    
C2    C55   A    
C43   H19   S    
C12   O12   A    
C19   O21   A    
C15   C16   A    
C15   H49   S    
C36   O5    S    
C10   O17   S    
C48   H33   S    
C15   N3    A    
Cu1   O22   S    
C49   H36   S    
C34   H12   S    
C30   C33   A    
C41   H13   S    
C46   H27   S    
C52   H48   S    
C10   C13   A    
C48   H32   S    
C33   O7    S    
C47   H31   S    
C14   C17   A    
C46   O10   S    
C39   H9    S    
C32   O6    S    
C21   O2    S    
C1    O19   A    
C51   O16   S    
C47   O11   S    
C38   H6    S    
C20   C29   A    
C53   C55   A    
Cu2   O19   S    
C54   C56   A    
C42   H16   S    
C50   H40   S    
C40   H11   S    
C32   C35   A    
C44   H22   S    
C4    C6    A    
C48   H35   S    
C39   C40   S    
C16   H50   S    
Cu1   N3    S    
C3    C5    A    
C19   O22   A    
C14   N4    A    
C22   C25   A    
C6    C34   A    
C16   N4    A    
C51   H44   S    
C47   H29   S    
C18   O23   A    
C2    C4    A    
C37   C38   S    
C50   O15   S    
C20   N1    A    
C3    C56   A    
C5    C23   A    
C38   H7    S    
C31   C33   A    
C42   H17   S    
C49   H37   S    
C2    H34   S    
C9    C11   A    
C43   O8    S    
C31   O5    S    
C41   H14   S    
C46   H26   S    
Cu2   O23   S    
C40   C41   S    
C45   C54   A    
Cu2   O12   S    
C36   H52   S    
C7    O14   S    
C39   H8    S    
Cu1   O20   S    
C1    C13   S    
C8    O15   S    
C21   N2    A    
C38   H5    S    
C19   C55   S    
C51   H42   S    
C7    C9    A    
C49   O14   S    
C52   H46   S    
C50   H39   S    
C12   O18   A    
C4    O13   S    
C52   O17   S    
C26   C28   A    
C35   O8    S    
C36   H2    S    
C53   O10   S    
C17   H51   S    
C52   H47   S    
C37   H3    S    
C11   C12   S    
C3    O11   S    
C5    N2    S    
Cu2   O21   S    
C25   C27   A    
C21   C30   A    
C29   C35   A    
C44   O9    S    
C42   H18   S    
C47   H30   S    
C28   C30   A    
C48   O13   S    
Cu1   Cu2   S    
C8    C11   A    
C24   O4    S    
C18   O20   A    
C49   H38   S    
C18   C54   S    
C41   H15   S    
C7    C13   A    
C34   C53   A    
C8    C10   A    
C22   N1    A    
C40   H10   S    
C27   C28   A    
Cu2   N4    S    
C1    O1    A    
C43   H21   S    
C51   H43   S    
C39   O6    S    
C42   O7    S    
C46   H28   S    
