data_str_m2_o4_o22_f0_pcu.sym.191
_audit_creation_date              2012-12-10T19:03:06-0500
_audit_creation_method            fapswitch 2.2
_symmetry_space_group_name_H-M    P1
_symmetry_Int_Tables_number       1
_space_group_crystal_system       triclinic
_cell_length_a                    10.762108
_cell_length_b                    10.851366
_cell_length_c                    9.583861
_cell_angle_alpha                 90.084073
_cell_angle_beta                  90.415656
_cell_angle_gamma                 91.501349
_cell_volume                      1118.82232466

loop_
_atom_site_label
_atom_site_type_symbol
_atom_type_description
_atom_site_fract_x
_atom_site_fract_y
_atom_site_fract_z
_atom_type_partial_charge
C1    C     C_R   0.499104 0.262761 0.499970 0.849414
C2    C     C_3   0.877567 0.494699 0.501288 0.112726
C3    C     C_3   0.933699 0.616190 0.442089 -0.393858
C4    C     C_3   0.920842 0.384796 0.411256 -0.435302
C5    C     C_R   0.512840 0.062144 0.620214 0.095817
C6    C     C_R   0.494617 0.129900 0.499127 -0.077969
C7    C     C_R   0.472832 0.063745 0.373984 -0.164187
C8    C     C_R   0.473722 0.934455 0.373672 -0.216213
C9    C     C_R   0.497587 0.869622 0.498261 -0.089778
C10   C     C_R   0.516862 0.938040 0.618878 0.098671
C11   C     C_3   0.555359 0.928429 0.768138 -0.587247
C12   C     C_R   0.260018 0.492892 0.499956 0.800574
C13   C     C_3   0.549048 0.070796 0.771454 -0.054428
C14   C     C_R   0.573803 0.582059 0.074504 0.240984
C15   C     C_R   0.416371 0.428342 0.071125 0.057449
C16   C     C_R   0.417997 0.429522 0.922842 -0.016389
C17   C     C_R   0.573921 0.581803 0.927438 0.249559
C18   C     C_3   0.712137 0.592257 0.923667 -0.485510
C19   C     C_3   0.711935 0.593769 0.081747 -0.481792
C20   C     C_R   0.500388 0.737124 0.499829 0.808601
C21   C     C_R   0.739914 0.498906 0.500449 0.762334
C22   C     C_3   0.069205 0.459666 0.651837 -0.193031
C23   C     C_3   0.927437 0.478765 0.652279 -0.347799
C24   C     C_3   0.076592 0.616224 0.456072 -0.429069
C25   C     C_3   0.064057 0.390686 0.393618 -0.138381
C26   C     C_3   0.121443 0.486620 0.501145 0.063492
Cu1   Cu    Cu3+1 0.499990 0.499980 0.640670 0.966829
Cu2   Cu    Cu3+1 0.500010 0.500020 0.359330 0.937868
H1    H     H_    0.110872 0.528620 0.725870 0.125205
H2    H     H_    0.876527 0.386019 0.306035 0.171050
H3    H     H_    0.118241 0.644087 0.354503 0.181093
H4    H     H_    0.907114 0.625763 0.330273 0.179581
H5    H     H_    0.456006 0.111156 0.276565 0.158059
H6    H     H_    0.456778 0.886046 0.276185 0.165164
H7    H     H_    0.483650 0.878909 0.831393 0.211809
H8    H     H_    0.650626 0.892152 0.779196 0.180376
H9    H     H_    0.355148 0.370840 0.863677 0.182443
H10   H     H_    0.754275 0.507938 0.881345 0.237610
H11   H     H_    0.745692 0.680603 0.876969 0.180855
H12   H     H_    0.755885 0.511451 0.127512 0.225569
H13   H     H_    0.743978 0.683609 0.126888 0.185868
H14   H     H_    0.875769 0.402342 0.705034 0.223113
H15   H     H_    0.908668 0.563668 0.713098 0.149779
H16   H     H_    0.107386 0.686620 0.534518 0.179416
H17   H     H_    0.896976 0.696880 0.498915 0.158555
H18   H     H_    0.083307 0.426543 0.286894 0.154035
H19   H     H_    0.889856 0.297154 0.462289 0.172079
N1    N     N_R   0.500800 0.500930 0.147930 -0.229690
N2    N     N_R   0.500800 0.500890 0.852020 -0.204167
O1    O     O_R   0.500000 0.319640 0.618810 -0.557154
O2    O     O_R   0.500010 0.319680 0.381230 -0.616817
O3    O     O_R   0.317690 0.499960 0.618790 -0.614911
O4    O     O_R   0.317700 0.500000 0.381210 -0.605254
O5    O     O_R   0.499990 0.680320 0.618770 -0.573727
O6    O     O_R   0.500000 0.680360 0.381190 -0.588275
O7    O     O_R   0.682300 0.500000 0.618790 -0.585838
O8    O     O_R   0.682310 0.500040 0.381210 -0.587952
C27   C     C_2   0.447141 0.114507 0.865893 0.472309
H20   H     H_    0.466088 0.127836 0.976357 0.069395
O9    O     O_2   0.342517 0.131522 0.820959 -0.526028
C28   C     C_2   0.673710 0.135837 0.792226 0.323406
H21   H     H_    0.753231 0.107134 0.732354 0.104953
O10   O     O_2   0.686757 0.221390 0.874462 -0.548239
C29   C     C_2   0.322504 0.345137 0.136889 0.304706
H22   H     H_    0.327497 0.320197 0.244304 0.171634
O11   O     O_2   0.235531 0.301279 0.068986 -0.567653
C30   C     C_2   0.104577 0.334096 0.707676 0.502492
H23   H     H_    0.201537 0.313187 0.719609 0.145232
O12   O     O_2   0.027263 0.254331 0.737920 -0.522561
C31   C     C_2   0.114445 0.261405 0.394448 0.342043
H24   H     H_    0.068799 0.191049 0.330191 0.116750
O13   O     O_2   0.206437 0.234286 0.461585 -0.579681

loop_
_geom_bond_atom_site_label_1
_geom_bond_atom_site_label_2
_ccdc_geom_bond_type
C21   O7    A    
C2    C4    S    
C15   C29   S    
C21   O8    A    
C31   H24   S    
C25   C31   S    
C22   H1    S    
C11   C13   S    
C9    C10   A    
C9    C20   S    
C5    C13   S    
C12   O4    A    
Cu1   O1    S    
C16   H9    S    
Cu2   O4    S    
C29   H22   S    
C2    C21   S    
C11   H7    S    
C2    C3    S    
C18   H10   S    
Cu1   O5    S    
C23   H15   S    
C7    C8    A    
C25   C26   S    
C8    H6    S    
Cu2   O8    S    
Cu1   O3    S    
Cu1   N2    S    
C1    O2    A    
C14   C17   A    
C19   H13   S    
C3    C24   S    
C28   H21   S    
C23   H14   S    
C15   N1    A    
C20   O6    A    
C5    C6    A    
C14   C19   S    
C11   H8    S    
C12   O3    A    
Cu2   O6    S    
C24   C26   S    
C17   C18   S    
C6    C7    A    
C10   C11   S    
C22   C26   S    
C3    H4    S    
C24   H16   S    
Cu2   O2    S    
C22   C30   S    
C24   H3    S    
C31   O13   D    
C19   H12   S    
C7    H5    S    
C27   O9    D    
C30   H23   S    
C4    C25   S    
C5    C10   A    
C13   C28   S    
C16   N2    A    
C20   O5    A    
C18   C19   S    
C1    O1    A    
C17   N2    A    
C2    C23   S    
C28   O10   D    
C18   H11   S    
C22   C23   S    
Cu2   N1    S    
C14   N1    A    
C13   C27   S    
C1    C6    S    
C30   O12   D    
C27   H20   S    
Cu1   O7    S    
C25   H18   S    
C3    H17   S    
C4    H2    S    
C15   C16   A    
C12   C26   S    
C8    C9    A    
Cu1   Cu2   S    
C4    H19   S    
C29   O11   D    
