data_str_m2_o4_o11_f0_pcu.sym.132
_audit_creation_date              2012-12-10T18:57:39-0500
_audit_creation_method            fapswitch 2.2
_symmetry_space_group_name_H-M    P1
_symmetry_Int_Tables_number       1
_space_group_crystal_system       triclinic
_cell_length_a                    11.011057
_cell_length_b                    10.915655
_cell_length_c                    9.60761
_cell_angle_alpha                 90.010539
_cell_angle_beta                  89.162292
_cell_angle_gamma                 90.110916
_cell_volume                      1154.64090156

loop_
_atom_site_label
_atom_site_type_symbol
_atom_type_description
_atom_site_fract_x
_atom_site_fract_y
_atom_site_fract_z
_atom_type_partial_charge
C1    C     C_R   0.502677 0.262362 0.499479 0.800895
C2    C     C_R   0.513150 0.128782 0.497850 -0.186824
C3    C     C_R   0.532564 0.060934 0.372595 0.456022
C4    C     C_R   0.541565 0.933008 0.378887 -0.300360
C5    C     C_R   0.503814 0.870076 0.498918 -0.171778
C6    C     C_R   0.479614 0.939587 0.617290 0.016171
C7    C     C_3   0.383547 0.944185 0.730465 0.280906
C8    C     C_3   0.422234 0.077612 0.746721 -0.429184
C9    C     C_R   0.591863 0.555508 0.071641 0.263930
C10   C     C_R   0.414754 0.438925 0.077786 -0.099200
C11   C     C_R   0.412557 0.439182 0.930265 0.243372
C12   C     C_R   0.265137 0.499689 0.500852 0.819897
C13   C     C_R   0.592533 0.554204 0.924288 0.185891
C14   C     C_3   0.628017 0.685594 0.914744 -0.483255
C15   C     C_3   0.623066 0.689049 0.072716 -0.094295
C16   C     C_R   0.499676 0.737203 0.499942 0.804779
C17   C     C_R   0.733052 0.492325 0.499281 0.853748
C18   C     C_2   0.932082 0.500694 0.393390 -0.170414
C19   C     C_2   0.860666 0.465396 0.498529 -0.332450
C20   C     C_2   0.062778 0.477390 0.394124 0.196351
C21   C     C_2   0.132244 0.509926 0.505243 0.035242
C22   C     C_R   0.503428 0.062668 0.622344 0.013304
Cu1   Cu    Cu3+1 0.499990 0.499980 0.640670 0.933154
Cu2   Cu    Cu3+1 0.500010 0.500020 0.359330 0.943111
H1    H     H_    0.894355 0.544540 0.302404 0.165931
H2    H     H_    0.474955 0.096304 0.842117 0.167792
H3    H     H_    0.345266 0.391456 0.136877 0.144315
H4    H     H_    0.720298 0.697119 0.867880 0.206255
H5    H     H_    0.557136 0.743352 0.867063 0.185352
H6    H     H_    0.547056 0.746134 0.113154 0.171718
H7    H     H_    0.895594 0.413599 0.585257 0.162878
H8    H     H_    0.566450 0.883768 0.285532 0.179246
H9    H     H_    0.400623 0.885568 0.822315 0.086664
H10   H     H_    0.347694 0.142892 0.727424 0.210416
N1    N     N_R   0.500780 0.500930 0.147930 -0.216156
N2    N     N_R   0.500780 0.500890 0.852020 -0.188355
O1    O     O_R   0.500000 0.319640 0.618810 -0.588838
O2    O     O_R   0.500010 0.319680 0.381230 -0.551801
O3    O     O_R   0.321940 0.499980 0.618760 -0.588695
O4    O     O_R   0.321950 0.500020 0.381180 -0.599727
O5    O     O_R   0.499990 0.680320 0.618770 -0.595322
O6    O     O_R   0.500000 0.680360 0.381190 -0.590836
O7    O     O_R   0.678050 0.499980 0.618820 -0.578684
O8    O     O_R   0.678060 0.500020 0.381240 -0.571448
C23   C     C_3   0.303774 0.379441 0.867440 -0.814909
H11   H     H_    0.326928 0.333489 0.769636 0.268107
H12   H     H_    0.264779 0.308029 0.937264 0.176832
H13   H     H_    0.232296 0.449146 0.851559 0.238127
C24   C     C_3   0.745441 0.717197 0.138786 -0.827175
H14   H     H_    0.737510 0.708293 0.253548 0.247599
H15   H     H_    0.817257 0.654248 0.099202 0.228171
H16   H     H_    0.772350 0.812901 0.114022 0.240714
C25   C     C_3   0.113346 0.422216 0.261347 -0.869655
H17   H     H_    0.039491 0.388623 0.193449 0.230431
H18   H     H_    0.164293 0.492933 0.201438 0.244292
H19   H     H_    0.171525 0.342151 0.285277 0.219759
C26   C     C_3   0.077909 0.565726 0.637489 -0.934784
H20   H     H_    0.147153 0.613306 0.700215 0.230182
H21   H     H_    0.007559 0.634915 0.613361 0.242304
H22   H     H_    0.040223 0.493090 0.706141 0.238715
O9    O     O_3   0.538975 0.115906 0.242999 -0.591048
C27   C     C_3   0.420389 0.123712 0.187393 0.099993
H23   H     H_    0.424331 0.192731 0.103097 0.168237
H24   H     H_    0.352071 0.156825 0.265609 0.117968
C28   C     C_3   0.377734 0.002875 0.121719 -0.438416
H25   H     H_    0.445706 0.972043 0.043027 0.216728
H26   H     H_    0.368430 0.929880 0.200894 0.226717
C29   C     C_3   0.253726 0.017994 0.054891 -0.886568
H27   H     H_    0.184865 0.045209 0.134643 0.251307
H28   H     H_    0.225235 0.929803 0.007771 0.268913
H29   H     H_    0.257343 0.088878 0.972421 0.268453
O10   O     O_3   0.259784 0.948940 0.690696 -0.604000
C30   C     C_3   0.221653 0.851642 0.606146 0.083523
H30   H     H_    0.134413 0.818175 0.650787 0.159885
H31   H     H_    0.284600 0.772782 0.604252 0.136889
C31   C     C_3   0.195967 0.901191 0.460434 -0.348590
H32   H     H_    0.120138 0.968126 0.467137 0.223251
H33   H     H_    0.276713 0.950729 0.419554 0.223162
C32   C     C_3   0.161851 0.799595 0.359432 -0.921315
H34   H     H_    0.237828 0.733681 0.347426 0.271664
H35   H     H_    0.142598 0.839518 0.255952 0.260369
H36   H     H_    0.078940 0.751366 0.397114 0.264450

loop_
_geom_bond_atom_site_label_1
_geom_bond_atom_site_label_2
_ccdc_geom_bond_type
C10   H3    S    
Cu2   O6    S    
C30   H30   S    
C31   C32   S    
C19   H7    S    
Cu1   O7    S    
C7    C8    S    
C25   H17   S    
C11   N2    A    
C31   H33   S    
C1    C2    S    
C5    C6    A    
C26   H21   S    
C6    C22   A    
C8    H2    S    
C18   C19   D    
C23   H12   S    
C24   H14   S    
C9    C13   A    
C5    C16   S    
C27   H24   S    
C17   C19   S    
C29   H27   S    
C24   H15   S    
C2    C22   A    
C8    C22   S    
Cu1   Cu2   S    
C10   N1    A    
C1    O1    A    
O10   C30   S    
C24   H16   S    
C3    O9    S    
C13   C14   S    
C7    H9    S    
C18   H1    S    
C25   H18   S    
Cu2   N1    S    
C31   H32   S    
C13   N2    A    
C7    O10   S    
C32   H35   S    
C20   C25   S    
C26   H22   S    
C23   H13   S    
C28   H26   S    
Cu1   O1    S    
C12   C21   S    
C12   O4    A    
C17   O7    A    
C21   C26   S    
C27   H23   S    
Cu2   O2    S    
C28   C29   S    
C8    H10   S    
C4    H8    S    
C1    O2    A    
C28   H25   S    
Cu2   O8    S    
C30   C31   S    
C11   C23   S    
C30   H31   S    
C14   H5    S    
C3    C4    A    
C16   O6    A    
C15   H6    S    
C25   H19   S    
C27   C28   S    
C4    C5    A    
C32   H36   S    
C6    C7    S    
Cu1   O5    S    
C12   O3    A    
C2    C3    A    
C9    C15   S    
C17   O8    A    
C26   H20   S    
C29   H29   S    
Cu1   O3    S    
Cu2   O4    S    
C18   C20   S    
C15   C24   S    
O9    C27   S    
C10   C11   A    
C32   H34   S    
C23   H11   S    
C20   C21   D    
C29   H28   S    
Cu1   N2    S    
C9    N1    A    
C14   C15   S    
C14   H4    S    
C16   O5    A    
