data_str_m2_o4_o13_f0_pcu.sym.117
_audit_creation_date              2012-12-10T18:58:43-0500
_audit_creation_method            fapswitch 2.2
_symmetry_space_group_name_H-M    P1
_symmetry_Int_Tables_number       1
_space_group_crystal_system       triclinic
_cell_length_a                    13.04685
_cell_length_b                    10.827261
_cell_length_c                    9.584956
_cell_angle_alpha                 89.348705
_cell_angle_beta                  97.31825
_cell_angle_gamma                 89.681572
_cell_volume                      1342.83675242

loop_
_atom_site_label
_atom_site_type_symbol
_atom_type_description
_atom_site_fract_x
_atom_site_fract_y
_atom_site_fract_z
_atom_type_partial_charge
C1    C     C_R   0.498636 0.262435 0.500255 0.804810
C2    C     C_R   0.028805 0.498751 0.565052 0.002760
C3    C     C_R   0.970948 0.519564 0.432138 0.058363
C4    C     C_R   0.863392 0.521686 0.420702 -0.228988
C5    C     C_R   0.871229 0.451674 0.661196 -0.294154
C6    C     C_R   0.978631 0.458572 0.678943 0.267108
C7    C     C_R   0.486689 0.062133 0.623061 0.053274
C8    C     C_R   0.489083 0.129337 0.498557 -0.075136
C9    C     C_R   0.476664 0.065935 0.369982 -0.220253
C10   C     C_R   0.476160 0.937086 0.369186 -0.229654
C11   C     C_R   0.487894 0.870493 0.496945 -0.078598
C12   C     C_R   0.300447 0.505110 0.472923 0.810548
C13   C     C_R   0.485901 0.934994 0.621948 0.013596
C14   C     C_3   0.551245 0.926319 0.762327 0.293932
C15   C     C_3   0.553594 0.067921 0.762023 -0.533347
C16   C     C_R   0.530075 0.603862 0.077742 0.186292
C17   C     C_R   0.452819 0.409266 0.067980 -0.160928
C18   C     C_R   0.447204 0.412261 0.917220 0.545817
C19   C     C_R   0.549300 0.589374 0.936168 0.101749
C20   C     C_3   0.663742 0.594094 0.992895 0.223589
C21   C     C_3   0.632166 0.663204 0.115023 -0.444263
C22   C     C_R   0.497961 0.737461 0.499118 0.800758
C23   C     C_R   0.699612 0.496850 0.526256 0.785913
C24   C     C_R   0.812918 0.493086 0.537929 -0.094393
C25   C     C_R   0.187140 0.514952 0.458108 -0.163302
C26   C     C_R   0.021588 0.536253 0.312947 -0.200818
C27   C     C_R   0.129074 0.527370 0.324993 -0.273136
C28   C     C_R   0.135983 0.515135 0.579421 0.408600
Cu1   Cu    Cu3+1 0.499990 0.499980 0.640670 0.981027
Cu2   Cu    Cu3+1 0.500010 0.500020 0.359330 0.945288
H1    H     H_    0.819712 0.543374 0.319885 0.180828
H2    H     H_    0.511695 0.107893 0.844859 0.200141
H3    H     H_    0.628779 0.112467 0.753669 0.184188
H4    H     H_    0.418887 0.334386 0.120694 0.136537
H5    H     H_    0.715899 0.645559 0.929897 0.117561
H6    H     H_    0.674194 0.638012 0.218320 0.234897
H7    H     H_    0.627877 0.765039 0.096527 0.129668
H8    H     H_    0.833555 0.406812 0.739287 0.150316
H9    H     H_    0.977869 0.551003 0.210200 0.151878
H10   H     H_    0.166835 0.533404 0.230963 0.170086
H11   H     H_    0.472252 0.115123 0.270367 0.155635
H12   H     H_    0.471614 0.890341 0.269285 0.161515
H13   H     H_    0.505681 0.888824 0.843512 0.098156
N1    N     N_R   0.500660 0.500930 0.148010 -0.160472
N2    N     N_R   0.500660 0.500890 0.852110 -0.233328
O1    O     O_R   0.500000 0.319640 0.618810 -0.528953
O2    O     O_R   0.500010 0.319680 0.381230 -0.594119
O3    O     O_R   0.348990 0.499960 0.599490 -0.518148
O4    O     O_R   0.349000 0.500000 0.361910 -0.597807
O5    O     O_R   0.499990 0.680320 0.618770 -0.576757
O6    O     O_R   0.500000 0.680360 0.381190 -0.598471
O7    O     O_R   0.651000 0.500000 0.638090 -0.606329
O8    O     O_R   0.651010 0.500040 0.400510 -0.567766
O9    O     O_3   0.645770 0.859030 0.763401 -0.601677
C29   C     C_3   0.719324 0.913068 0.685156 0.065029
H14   H     H_    0.767733 0.977867 0.753659 0.153459
H15   H     H_    0.683636 0.963076 0.588980 0.149702
C30   C     C_3   0.788807 0.810868 0.639852 -0.317445
H16   H     H_    0.820903 0.754424 0.733075 0.217960
H17   H     H_    0.741826 0.750115 0.564546 0.211453
C31   C     C_3   0.877903 0.863292 0.569389 -0.944103
H18   H     H_    0.847669 0.917707 0.473882 0.259110
H19   H     H_    0.926439 0.786372 0.538012 0.264139
H20   H     H_    0.926908 0.923349 0.643374 0.252220
O10   O     O_3   0.397887 0.319683 0.835789 -0.593481
C32   C     C_3   0.297824 0.294223 0.870893 0.094542
H21   H     H_    0.243818 0.295580 0.771439 0.208211
H22   H     H_    0.267713 0.364156 0.940240 0.137806
C33   C     C_3   0.295721 0.164725 0.936169 -0.417790
H23   H     H_    0.320847 0.096660 0.861696 0.229333
H24   H     H_    0.350428 0.158003 0.034416 0.202574
C34   C     C_3   0.187713 0.131897 0.969170 -0.902439
H25   H     H_    0.159480 0.201862 0.039419 0.263081
H26   H     H_    0.189923 0.040444 0.023072 0.255304
H27   H     H_    0.133288 0.126937 0.870454 0.252827
O11   O     O_3   0.701029 0.479280 0.054093 -0.596406
C35   C     C_3   0.748688 0.406380 0.962706 0.025874
H28   H     H_    0.698612 0.397430 0.861078 0.183596
H29   H     H_    0.824410 0.448194 0.952195 0.153699
C36   C     C_3   0.764971 0.277229 0.028274 -0.296420
H30   H     H_    0.806167 0.284087 0.136846 0.231527
H31   H     H_    0.688305 0.234609 0.034676 0.219000
C37   C     C_3   0.827347 0.194070 0.942612 -0.974323
H32   H     H_    0.908907 0.224213 0.953065 0.261837
H33   H     H_    0.825608 0.097597 0.982718 0.262908
H34   H     H_    0.794888 0.196361 0.829842 0.242648
N3    N     N_2   0.036085 0.405483 0.801316 -0.400754
H35   H     H_    0.026796 0.311461 0.810483 0.240107
C38   C     C_3   0.034710 0.471275 0.931814 -0.717287
H36   H     H_    0.115205 0.490054 0.977987 0.232292
H37   H     H_    0.999216 0.413458 0.008729 0.212925
H38   H     H_    0.992063 0.560622 0.915860 0.214332
O12   O     O_3   0.190690 0.534126 0.711221 -0.592131
C39   C     C_3   0.174015 0.656785 0.754421 0.075772
H39   H     H_    0.196382 0.660022 0.870047 0.151837
H40   H     H_    0.091071 0.685176 0.734946 0.137823
C40   C     C_3   0.241242 0.749613 0.685839 -0.364917
H41   H     H_    0.323878 0.724197 0.713727 0.241974
H42   H     H_    0.222072 0.748649 0.569643 0.206068
C41   C     C_3   0.224341 0.880144 0.736060 -0.952652
H43   H     H_    0.141668 0.907326 0.712335 0.265124
H44   H     H_    0.271103 0.945676 0.681103 0.262541
H45   H     H_    0.248577 0.885374 0.851131 0.257482

loop_
_geom_bond_atom_site_label_1
_geom_bond_atom_site_label_2
_ccdc_geom_bond_type
C32   H22   S    
Cu2   O6    S    
C16   C21   S    
C10   H12   S    
C1    C8    S    
C19   C20   S    
C12   O3    A    
C40   C41   S    
C12   O4    A    
C7    C8    A    
C21   H6    S    
C35   H28   S    
C25   C28   A    
C26   C27   A    
O12   C39   S    
C33   H23   S    
C34   H27   S    
C5    C6    A    
C4    C24   A    
C26   H9    S    
C32   C33   S    
C30   H17   S    
C40   H41   S    
C20   O11   S    
C31   H19   S    
C33   H24   S    
C20   H5    S    
C8    C9    A    
C23   C24   S    
C38   H37   S    
C9    C10   A    
C16   N1    A    
C22   O5    A    
C30   C31   S    
C7    C15   S    
C32   H21   S    
C13   C14   S    
Cu2   N1    S    
C2    C6    A    
C36   C37   S    
C40   H42   S    
C23   O8    A    
Cu1   O5    S    
C35   H29   S    
Cu2   O8    S    
Cu1   O3    S    
Cu2   O2    S    
C15   H2    S    
O11   C35   S    
C34   H26   S    
C34   H25   S    
C39   C40   S    
C30   H16   S    
C41   H45   S    
C6    N3    S    
Cu1   N2    S    
C28   O12   S    
C18   O10   S    
C31   H20   S    
Cu1   Cu2   S    
C37   H32   S    
C27   H10   S    
C29   H14   S    
C41   H44   S    
C17   C18   A    
C39   H39   S    
C38   H38   S    
C39   H40   S    
C36   H31   S    
C37   H33   S    
Cu2   O4    S    
N3    C38   S    
C17   H4    S    
C3    C4    A    
C18   N2    A    
C33   C34   S    
C35   C36   S    
O9    C29   S    
C14   O9    S    
C3    C26   A    
C1    O2    A    
C36   H30   S    
C19   N2    A    
C25   C27   A    
C12   C25   S    
C11   C22   S    
C9    H11   S    
Cu1   O1    S    
C29   H15   S    
C2    C3    A    
C17   N1    A    
C11   C13   A    
C23   O7    A    
C5    C24   A    
C16   C19   A    
C41   H43   S    
C31   H18   S    
C1    O1    A    
C4    H1    S    
C10   C11   A    
C7    C13   A    
C37   H34   S    
C21   H7    S    
C20   C21   S    
N3    H35   S    
O10   C32   S    
C29   C30   S    
C14   C15   S    
C14   H13   S    
C2    C28   A    
C38   H36   S    
C5    H8    S    
C15   H3    S    
C22   O6    A    
Cu1   O7    S    
