data_str_m2_o1_o16_f0_pcu.sym.49
_audit_creation_date              2013-03-05T16:04:20-0500
_audit_creation_method            fapswitch 2.2
_symmetry_space_group_name_H-M    P1
_symmetry_Int_Tables_number       1
_space_group_crystal_system       triclinic
_cell_length_a                    9.521184
_cell_length_b                    10.835213
_cell_length_c                    13.414806
_cell_angle_alpha                 89.348009
_cell_angle_beta                  72.315439
_cell_angle_gamma                 90.538521
_cell_volume                      1318.32072892

loop_
_atom_site_label
_atom_site_type_symbol
_atom_site_description
_atom_site_fract_x
_atom_site_fract_y
_atom_site_fract_z
_atom_type_partial_charge
O1    O     O_R   0.381250 0.680340 0.500010 -0.549503
O2    O     O_R   0.618820 0.680370 0.500010 -0.536307
C1    C     C_R   0.501151 0.738137 0.499708 0.909618
O3    O     O_R   0.323240 0.499950 0.650980 -0.572121
O4    O     O_R   0.560810 0.499980 0.650980 -0.604129
C2    C     C_R   0.420756 0.501486 0.700431 0.846972
Cu1   Cu    Cu3+1 0.359340 0.499980 0.500000 1.021643
Cu2   Cu    Cu3+1 0.640660 0.500020 0.500000 1.030270
O5    O     O_R   0.381180 0.319630 0.499990 -0.596607
O6    O     O_R   0.618750 0.319660 0.499990 -0.593273
O7    O     O_R   0.439190 0.500020 0.349020 -0.567770
O8    O     O_R   0.676760 0.500050 0.349020 -0.544280
C3    C     C_R   0.498983 0.262568 0.500856 0.835797
C4    C     C_R   0.579008 0.500362 0.299591 0.831568
C5    C     C_R   0.766106 0.630151 0.031728 -0.147202
H1    H     H_    0.830471 0.611036 0.170396 0.218976
H2    H     H_    0.766392 0.715529 0.846140 0.164711
H3    H     H_    0.862876 0.685534 0.992298 0.162222
C6    C     C_R   0.623457 0.517282 0.185671 -0.070204
C7    C     C_R   0.241516 0.426983 0.863959 -0.312457
C8    C     C_R   0.194025 0.406376 0.971587 0.406770
C9    C     C_R   0.282212 0.447113 0.032834 0.234768
C10   C     C_R   0.422609 0.505690 0.983360 -0.079531
C11   C     C_R   0.456518 0.541039 0.876116 0.051503
C12   C     C_R   0.531860 0.530677 0.034537 0.125758
C13   C     C_R   0.657492 0.605402 0.983344 0.149649
C14   C     C_R   0.674177 0.654676 0.884261 -0.204120
C15   C     C_R   0.575036 0.623445 0.831557 -0.127250
C16   C     C_R   0.524927 0.480190 0.132918 -0.149154
C17   C     C_R   0.748383 0.587232 0.132905 -0.026101
C18   C     C_R   0.370582 0.494204 0.815579 -0.142448
H4    H     H_    0.444874 0.411041 0.171355 0.194172
H5    H     H_    0.177266 0.389274 0.816979 0.213744
H6    H     H_    0.591681 0.666023 0.755540 0.156970
C19   C     C_R   0.629851 0.941636 0.443592 0.407660
C20   C     C_R   0.626396 0.069344 0.446234 -0.209711
H7    H     H_    0.722779 0.122936 0.403111 0.211070
C21   C     C_R   0.498454 0.129619 0.500746 -0.164336
C22   C     C_R   0.372519 0.063458 0.556516 -0.204535
H8    H     H_    0.275069 0.111945 0.601289 0.193713
C23   C     C_R   0.374671 0.935161 0.560681 0.321519
C24   C     C_R   0.502826 0.872795 0.501689 -0.294591
C25   C     C_R   0.900037 0.578926 0.561937 0.063128
H9    H     H_    0.823813 0.642562 0.611269 0.130719
C26   C     C_R   0.048742 0.578814 0.561983 0.021226
H10   H     H_    0.084026 0.641755 0.611830 0.186457
N1    N     N_R   0.147940 0.499970 0.499970 -0.196077
C27   C     C_R   0.099710 0.420259 0.438844 0.072693
H11   H     H_    0.175993 0.355918 0.390482 0.170745
C28   C     C_R   0.951064 0.420664 0.438425 0.064989
H12   H     H_    0.915514 0.357195 0.388958 0.165631
N2    N     N_R   0.852060 0.500060 0.499990 -0.183951
N3    N     N_R   0.249262 0.870396 0.629243 0.128172
O9    O     O_R   0.116640 0.908577 0.638829 -0.348415
O10   O     O_R   0.267791 0.787780 0.695157 -0.390302
N4    N     N_R   0.220085 0.441875 0.144349 0.115582
O11   O     O_R   0.187547 0.335818 0.192909 -0.343521
O12   O     O_R   0.198008 0.543195 0.197750 -0.346610
S1    S     S_3+6 0.025597 0.323730 0.026055 0.045931
O13   O     O_2   0.941351 0.373628 0.130959 -0.268738
O14   O     O_2   0.931642 0.331948 0.954186 -0.302126
O15   O     O_3   0.064884 0.174951 0.040746 -0.475953
H13   H     H_    0.968104 0.134037 0.073707 0.391889
S2    S     S_3+6 0.792611 0.874931 0.361594 0.024108
O16   O     O_2   0.878809 0.819408 0.427598 -0.258162
O17   O     O_2   0.751320 0.776496 0.297662 -0.330785
O18   O     O_3   0.898417 0.982106 0.280427 -0.524079
H14   H     H_    0.983936 0.936292 0.236330 0.394006

loop_
_geom_bond_atom_site_label_1
_geom_bond_atom_site_label_2
_geom_bond_distance
_ccdc_geom_bond_type
C5    H3    1.084017 S    
C28   N2    1.367165 A    
C10   C11   1.422542 A    
C5    C13   1.403271 A    
C1    C24   1.459617 S    
O15   H13   0.990679 S    
O4    Cu2   1.935088 S    
Cu1   N1    2.012900 S    
C23   C24   1.418719 A    
Cu2   N2    2.012734 S    
H2    C14   1.084347 S    
C19   C20   1.385047 A    
C9    N4    1.432065 S    
Cu2   O8    1.948664 S    
S2    O16   1.502702 D    
C27   C28   1.417055 A    
O2    C1    1.289519 A    
C13   C14   1.389588 A    
C11   C18   1.411300 A    
C15   H6    1.080548 S    
S1    O13   1.501926 D    
C22   C23   1.391201 A    
O1    Cu1   1.963397 S    
N3    O9    1.301732 A    
C7    C8    1.390326 A    
Cu1   O7    1.935089 S    
N1    C27   1.366252 A    
C25   C26   1.416046 A    
C23   N3    1.437517 S    
C3    C21   1.440511 S    
C19   S2    1.771250 S    
O3    Cu1   1.948662 S    
C7    H5    1.083389 S    
C20   C21   1.389173 A    
C20   H7    1.083410 S    
N4    O12   1.301278 A    
C8    S1    1.775855 S    
C16   H4    1.072330 S    
O1    C1    1.295816 A    
N3    O10   1.301547 A    
C25   H9    1.080772 S    
C12   C16   1.405460 A    
O4    C2    1.296806 A    
O7    C4    1.294383 A    
C25   N2    1.367081 A    
S1    O14   1.503733 D    
H1    C17   1.080881 S    
O18   H14   0.990447 S    
C6    C16   1.394678 A    
S2    O18   1.682788 S    
C26   H10   1.080581 S    
Cu1   Cu2   2.678496 S    
C10   C12   1.435079 A    
C21   C22   1.392107 A    
N4    O11   1.301735 A    
C5    C17   1.389944 A    
O3    C2    1.294824 A    
C26   N1    1.366709 A    
C22   H8    1.084165 S    
Cu1   O5    1.967102 S    
C19   C24   1.422542 A    
O5    C3    1.288885 A    
C9    C10   1.437236 A    
C27   H11   1.080725 S    
S1    O15   1.681184 S    
C2    C18   1.472652 S    
C28   H12   1.081807 S    
C12   C13   1.424094 A    
C8    C9    1.412549 A    
C6    C17   1.396277 A    
C4    C6    1.465389 S    
O6    C3    1.289065 A    
Cu2   O6    1.963397 S    
O2    Cu2   1.967104 S    
C11   C15   1.409621 A    
O8    C4    1.296487 A    
C14   C15   1.382132 A    
C7    C18   1.396311 A    
S2    O17   1.498479 D    
