data_str_m2_o1_o29_f0_pcu.sym.68
_audit_creation_date              2013-03-05T16:06:21-0500
_audit_creation_method            fapswitch 2.2
_symmetry_space_group_name_H-M    P1
_symmetry_Int_Tables_number       1
_space_group_crystal_system       triclinic
_cell_length_a                    10.97374
_cell_length_b                    9.648514
_cell_length_c                    27.469539
_cell_angle_alpha                 90.002377
_cell_angle_beta                  92.94126
_cell_angle_gamma                 90.000702
_cell_volume                      2904.65114286

loop_
_atom_site_label
_atom_site_type_symbol
_atom_site_description
_atom_site_fract_x
_atom_site_fract_y
_atom_site_fract_z
_atom_type_partial_charge
O1    O     O_R   0.319640 0.618740 0.500000 -0.568833
O2    O     O_R   0.680360 0.381260 0.500000 -0.570409
O3    O     O_R   0.680360 0.618740 0.500000 -0.568841
O4    O     O_R   0.319640 0.381260 0.500000 -0.570406
C1    C     C_R   0.262340 0.500134 0.499794 0.948421
C2    C     C_R   0.737660 0.500135 0.500206 0.948451
O5    O     O_R   0.500020 0.618770 0.430260 -0.557656
O6    O     O_R   0.499980 0.381230 0.569740 -0.610918
O7    O     O_R   0.499980 0.618770 0.569740 -0.557642
O8    O     O_R   0.500020 0.381230 0.430260 -0.610927
C3    C     C_R   0.497308 0.499989 0.407412 0.935909
C4    C     C_R   0.502687 0.499996 0.592588 0.935841
Cu1   Cu    Cu3+1 0.500000 0.640660 0.500000 0.997875
Cu2   Cu    Cu3+1 0.500000 0.359340 0.500000 0.978484
C5    C     C_R   0.363579 0.377623 0.174561 0.641237
C6    C     C_R   0.636360 0.377647 0.825420 0.641308
O9    O     O_2   0.262902 0.333987 0.195967 -0.534584
O10   O     O_2   0.737018 0.333967 0.804011 -0.534489
N1    N     N_R   0.467302 0.409218 0.202508 -0.443376
N2    N     N_R   0.532652 0.409319 0.797476 -0.443517
C7    C     C_R   0.575712 0.366303 0.184490 0.628966
C8    C     C_R   0.424211 0.366482 0.815490 0.628199
C9    C     C_R   0.573299 0.524865 0.275249 0.365828
C10   C     C_R   0.426736 0.525141 0.724751 0.366088
C11   C     C_R   0.586869 0.522871 0.326570 0.312612
C12   C     C_R   0.413150 0.523011 0.673432 0.313149
C13   C     C_R   0.367020 0.487733 0.329258 -0.123756
C14   C     C_R   0.632981 0.487748 0.670740 -0.123714
C15   C     C_R   0.357905 0.488196 0.277681 -0.122009
C16   C     C_R   0.642102 0.488252 0.722316 -0.121793
C17   C     C_R   0.465390 0.470816 0.251723 0.119163
C18   C     C_R   0.534609 0.470989 0.748277 0.118596
C19   C     C_R   0.481566 0.362322 0.102578 -0.141992
C20   C     C_R   0.518371 0.362349 0.897400 -0.141980
C21   C     C_R   0.366479 0.374100 0.123158 -0.027391
C22   C     C_R   0.633460 0.374107 0.876822 -0.027459
C23   C     C_R   0.259655 0.378000 0.091866 -0.001278
C24   C     C_R   0.740286 0.377973 0.908112 -0.001339
C25   C     C_R   0.587283 0.351331 0.133860 -0.146366
C26   C     C_R   0.412649 0.351409 0.866117 -0.146448
C27   C     C_R   0.483603 0.500343 0.353737 -0.132087
C28   C     C_R   0.516397 0.500376 0.646263 -0.132309
C29   C     C_R   0.393044 0.343611 0.968796 -0.009337
C30   C     C_R   0.606894 0.343596 0.031181 -0.009261
C31   C     C_R   0.616593 0.352693 0.979770 0.086981
C32   C     C_R   0.383346 0.352702 0.020208 0.086977
C33   C     C_R   0.509387 0.353216 0.948793 0.071936
C34   C     C_R   0.490551 0.353206 0.051185 0.071948
C35   C     C_R   0.290002 0.324770 0.936540 -0.298853
C36   C     C_R   0.709937 0.324756 0.063437 -0.298997
C37   C     C_R   0.299083 0.325137 0.886073 0.473757
C38   C     C_R   0.700852 0.325086 0.113906 0.473675
O11   O     O_2   0.330017 0.331402 0.784498 -0.489160
O12   O     O_2   0.669846 0.331000 0.215477 -0.489068
C39   C     C_R   0.269564 0.365613 0.041565 -0.278587
C40   C     C_R   0.730376 0.365584 0.958413 -0.278563
H1    H     H_    0.200149 0.306482 0.949199 0.142332
H2    H     H_    0.799794 0.306520 0.050778 0.142249
H3    H     H_    0.185868 0.375587 0.019551 0.124304
H4    H     H_    0.814077 0.375534 0.980425 0.124291
C41   C     C_R   0.061990 0.375897 0.495037 0.284882
C42   C     C_R   0.936389 0.627406 0.497272 0.307352
C43   C     C_R   0.938008 0.375900 0.504970 0.284920
C44   C     C_R   0.063613 0.627407 0.502727 0.307371
C45   C     C_R   0.871959 0.501101 0.501004 -0.309717
C46   C     C_R   0.128041 0.501100 0.498998 -0.309752
C47   C     C_R   0.445520 0.073732 0.461871 0.060379
C48   C     C_R   0.557959 0.925282 0.537268 0.012301
C49   C     C_R   0.554482 0.073741 0.538129 0.060407
C50   C     C_R   0.442042 0.925273 0.462732 0.012308
N3    N     N_R   0.500000 0.852070 0.500000 -0.266391
N4    N     N_R   0.500000 0.147930 0.500000 -0.245750
C51   C     C_2   0.253464 0.478473 0.356296 0.316374
H5    H     H_    0.176833 0.418347 0.341348 0.063771
O13   O     O_2   0.242369 0.541384 0.394246 -0.590861
C52   C     C_2   0.746528 0.478437 0.643699 0.316385
H6    H     H_    0.823134 0.418265 0.658640 0.063754
O14   O     O_2   0.757645 0.541363 0.605755 -0.590855
C53   C     C_2   0.383773 0.148273 0.420708 0.409909
H7    H     H_    0.322809 0.232559 0.427683 0.124266
O15   O     O_2   0.405029 0.121296 0.378579 -0.513303
C54   C     C_2   0.632289 0.849756 0.574918 0.478737
H8    H     H_    0.712395 0.793239 0.564975 0.138332
O16   O     O_2   0.603543 0.848129 0.617260 -0.492166
C55   C     C_2   0.616235 0.148291 0.579290 0.409896
H9    H     H_    0.677198 0.232577 0.572315 0.124283
O17   O     O_2   0.594986 0.121322 0.621420 -0.513276
C56   C     C_2   0.367704 0.849741 0.425083 0.478729
H10   H     H_    0.287595 0.793231 0.435028 0.138358
O18   O     O_2   0.396444 0.848103 0.382740 -0.492231
C57   C     C_2   0.247647 0.553097 0.253501 0.551823
H11   H     H_    0.158139 0.538725 0.267695 0.053693
O19   O     O_2   0.257003 0.629044 0.218320 -0.512151
C58   C     C_2   0.752398 0.553086 0.746493 0.551863
H12   H     H_    0.841898 0.538640 0.732298 0.053739
O20   O     O_2   0.743087 0.629056 0.781674 -0.512148
C59   C     C_2   0.135407 0.405916 0.108523 0.443323
H13   H     H_    0.057048 0.356288 0.090129 0.041159
O21   O     O_2   0.118187 0.491174 0.140244 -0.461147
C60   C     C_2   0.864540 0.405859 0.891457 0.443277
H14   H     H_    0.942889 0.356212 0.909849 0.041252
O22   O     O_2   0.881779 0.491111 0.859738 -0.461100
O23   O     O_3   0.301235 0.548287 0.649012 -0.607375
C61   C     C_3   0.209987 0.459307 0.666211 0.158438
H15   H     H_    0.161325 0.511603 0.695551 0.218972
H16   H     H_    0.247119 0.358082 0.680039 0.169619
C62   C     C_3   0.116823 0.427241 0.625128 -0.912323
H17   H     H_    0.163466 0.379518 0.594426 0.257102
H18   H     H_    0.048364 0.353562 0.638392 0.204624
H19   H     H_    0.068783 0.522934 0.612605 0.244737
O24   O     O_3   0.698778 0.548173 0.350994 -0.607499
C63   C     C_3   0.790060 0.459233 0.333796 0.158475
H20   H     H_    0.838754 0.511584 0.304478 0.218811
H21   H     H_    0.752957 0.358019 0.319941 0.169734
C64   C     C_3   0.883176 0.427133 0.374891 -0.912336
H22   H     H_    0.836495 0.379371 0.405576 0.257152
H23   H     H_    0.951655 0.353477 0.361628 0.204619
H24   H     H_    0.931197 0.522817 0.387439 0.244689
O25   O     O_3   0.333042 0.578295 0.751077 -0.557666
C65   C     C_3   0.373063 0.701060 0.774856 0.087727
H25   H     H_    0.404689 0.778317 0.748087 0.167182
H26   H     H_    0.448144 0.679427 0.802619 0.160152
C66   C     C_3   0.267302 0.763904 0.800910 -0.735803
H27   H     H_    0.234233 0.689280 0.828064 0.269288
H28   H     H_    0.297794 0.860095 0.820069 0.185714
H29   H     H_    0.191314 0.789573 0.774158 0.251833
O26   O     O_3   0.667013 0.577836 0.248900 -0.557658
C67   C     C_3   0.627336 0.701184 0.225418 0.086783
H30   H     H_    0.596979 0.778474 0.252440 0.167403
H31   H     H_    0.551428 0.680540 0.197902 0.160328
C68   C     C_3   0.732878 0.763260 0.199020 -0.734927
H32   H     H_    0.764465 0.688707 0.171522 0.268827
H33   H     H_    0.702741 0.860144 0.180212 0.185741
H34   H     H_    0.809828 0.787587 0.225507 0.252086
O27   O     O_3   0.193652 0.312310 0.856535 -0.526937
C69   C     C_3   0.160618 0.170870 0.853821 0.072548
H35   H     H_    0.125998 0.135169 0.889085 0.119507
H36   H     H_    0.239247 0.104706 0.844224 0.142113
C70   C     C_3   0.059724 0.151955 0.814302 -0.669794
H37   H     H_    0.091910 0.186150 0.778539 0.261414
H38   H     H_    0.033449 0.040931 0.811749 0.194455
H39   H     H_    0.978472 0.213880 0.823064 0.269508
O28   O     O_3   0.806278 0.312323 0.143452 -0.526881
C71   C     C_3   0.839625 0.170966 0.146043 0.072644
H40   H     H_    0.874619 0.135738 0.110791 0.119524
H41   H     H_    0.761079 0.104439 0.155459 0.141851
C72   C     C_3   0.940263 0.151998 0.185661 -0.670107
H42   H     H_    0.907672 0.185617 0.221419 0.261376
H43   H     H_    0.966869 0.041065 0.188089 0.194492
H44   H     H_    0.021397 0.214371 0.177101 0.269827
O29   O     O_3   0.120016 0.250943 0.487151 -0.564104
C73   C     C_3   0.076126 0.193686 0.442088 0.087890
H45   H     H_    0.120470 0.246132 0.411698 0.134792
H46   H     H_    0.975857 0.202941 0.435178 0.177816
C74   C     C_3   0.105307 0.040026 0.441381 -0.783258
H47   H     H_    0.039991 0.982788 0.462958 0.279290
H48   H     H_    0.100145 0.000201 0.403410 0.211231
H49   H     H_    0.196689 0.020765 0.458513 0.233143
O30   O     O_3   0.876496 0.752907 0.491018 -0.567970
C75   C     C_3   0.857382 0.777054 0.440415 0.073816
H50   H     H_    0.804069 0.691453 0.422559 0.199946
H51   H     H_    0.945896 0.787415 0.422668 0.154943
C76   C     C_3   0.784162 0.909567 0.431906 -0.729863
H52   H     H_    0.829319 0.998544 0.450860 0.252720
H53   H     H_    0.774913 0.932336 0.392268 0.219202
H54   H     H_    0.691951 0.896597 0.445718 0.261709
O31   O     O_3   0.879981 0.250950 0.512861 -0.564118
C77   C     C_3   0.923881 0.193711 0.557924 0.087893
H55   H     H_    0.879530 0.246154 0.588314 0.134788
H56   H     H_    0.024148 0.202989 0.564836 0.177810
C78   C     C_3   0.894718 0.040046 0.558631 -0.783212
H57   H     H_    0.960028 0.982818 0.537047 0.279283
H58   H     H_    0.899906 0.000224 0.596601 0.211234
H59   H     H_    0.803331 0.020766 0.541506 0.233126
O32   O     O_3   0.123508 0.752909 0.508983 -0.567989
C79   C     C_3   0.142622 0.777065 0.559585 0.073838
H60   H     H_    0.195931 0.691466 0.577441 0.199978
H61   H     H_    0.054109 0.787431 0.577332 0.154951
C80   C     C_3   0.215848 0.909577 0.568097 -0.729773
H62   H     H_    0.170691 0.998556 0.549148 0.252695
H63   H     H_    0.225107 0.932344 0.607735 0.219274
H64   H     H_    0.308056 0.896606 0.554281 0.261702

loop_
_geom_bond_atom_site_label_1
_geom_bond_atom_site_label_2
_geom_bond_distance
_ccdc_geom_bond_type
C78   H57   1.101671 S    
C43   C45   1.410121 A    
C39   H3    1.077727 S    
C13   C15   1.415185 A    
C51   O13   1.217787 D    
C51   H5    1.084824 S    
C56   O18   1.220776 D    
C76   H52   1.107753 S    
C68   H34   1.111073 S    
N1    C17   1.477874 S    
C67   H30   1.115094 S    
C23   C59   1.484907 S    
C59   H13   1.085994 S    
O27   C69   1.412988 S    
C55   H9    1.076460 S    
C30   C31   1.424407 A    
O5    C3    1.306246 A    
C78   H58   1.110267 S    
C19   C25   1.411812 A    
O1    C1    1.305615 A    
C72   H43   1.110555 S    
C52   O14   1.217780 D    
C69   C70   1.521283 S    
C7    O12   1.348145 S    
C70   H39   1.109938 S    
C77   H56   1.110533 S    
C66   H28   1.110043 S    
C74   H48   1.110269 S    
C30   C36   1.412077 A    
O28   C71   1.412974 S    
C35   H1    1.076789 S    
C47   N4    1.379357 A    
C5    C21   1.414431 A    
C41   C43   1.401293 A    
O7    Cu1   1.927353 S    
C61   H15   1.110611 S    
C4    C28   1.474371 S    
C19   C21   1.414486 A    
C37   O27   1.384172 S    
C41   C46   1.410114 A    
C79   C80   1.521749 S    
C72   H42   1.110845 S    
C31   C40   1.412049 A    
C48   C49   1.433149 A    
C64   H23   1.109322 S    
C32   C39   1.412048 A    
C36   C38   1.395012 A    
O29   C73   1.417125 S    
C50   N3    1.372840 A    
C42   C44   1.396470 A    
O3    Cu1   1.990494 S    
C65   C66   1.520547 S    
C6    N2    1.374099 A    
C80   H64   1.105877 S    
O3    C2    1.305621 A    
C43   O31   1.385666 S    
C25   C38   1.409929 A    
C50   C56   1.476292 S    
O31   C77   1.417133 S    
Cu1   Cu2   2.714320 S    
C74   H49   1.101460 S    
C62   H18   1.109327 S    
O2    C2    1.307885 A    
C71   C72   1.521246 S    
C61   H16   1.117303 S    
C63   H20   1.110611 S    
C59   O21   1.220058 D    
C65   H26   1.113350 S    
C8    O11   1.348129 S    
C31   C33   1.416119 A    
C78   H59   1.101458 S    
C32   C34   1.416113 A    
C74   H47   1.101669 S    
C38   O28   1.384202 S    
C55   O17   1.220297 D    
C36   H2    1.076763 S    
C75   C76   1.521748 S    
C66   H27   1.111004 S    
C72   H44   1.109795 S    
C47   C53   1.475247 S    
C52   H6    1.084817 S    
C69   H36   1.115747 S    
O8    Cu2   1.927353 S    
C11   C27   1.405397 A    
C57   H11   1.084136 S    
C53   O15   1.220298 D    
C29   C35   1.412070 A    
C66   H29   1.110787 S    
Cu1   N3    2.039792 S    
C35   C37   1.394982 A    
C40   H4    1.077717 S    
C44   C46   1.415268 A    
C49   N4    1.379366 A    
C5    N1    1.374107 A    
C10   C18   1.418965 A    
C2    C45   1.472823 S    
C12   O23   1.390408 S    
C57   O19   1.221354 D    
C13   C27   1.419660 A    
O30   C75   1.414414 S    
C7    C25   1.410428 A    
C73   C74   1.517119 S    
O6    C4    1.306118 A    
C64   H24   1.109120 S    
C8    C26   1.410465 A    
C76   H54   1.105877 S    
C60   O22   1.220055 D    
C6    O10   1.345463 S    
C73   H45   1.109712 S    
C44   O32   1.384273 S    
C58   O20   1.221356 D    
C41   O29   1.385665 S    
C61   C62   1.515277 S    
C63   H21   1.117300 S    
C71   H41   1.115683 S    
C77   H55   1.109708 S    
C73   H46   1.110528 S    
C54   H8    1.081371 S    
C54   O16   1.220776 D    
O8    C3    1.306110 A    
C62   H19   1.109122 S    
C20   C26   1.411824 A    
O1    Cu1   1.990489 S    
N2    C8    1.375584 A    
C62   H17   1.108860 S    
C68   H32   1.111291 S    
C14   C52   1.485731 S    
C67   C68   1.520579 S    
C15   C57   1.488234 S    
C49   C55   1.475246 S    
C65   H25   1.114919 S    
C12   C28   1.405413 A    
C9    O26   1.385311 S    
N2    C18   1.477868 S    
C21   C23   1.418111 A    
C5    O9    1.345460 S    
C79   H60   1.111538 S    
C10   O25   1.385430 S    
O6    Cu2   1.927336 S    
C14   C28   1.419654 A    
O24   C63   1.418277 S    
N1    C7    1.375557 A    
Cu2   N4    2.039793 S    
C10   C12   1.410084 A    
C69   H35   1.113161 S    
C68   H33   1.110235 S    
C67   H31   1.113650 S    
C70   H37   1.110990 S    
C80   H62   1.107752 S    
C26   C37   1.409958 A    
C71   H40   1.113046 S    
C47   C50   1.433148 A    
C48   C54   1.476292 S    
C75   H50   1.111542 S    
C14   C16   1.415176 A    
C15   C17   1.419211 A    
O32   C79   1.414416 S    
C1    C46   1.472824 S    
C22   C24   1.418102 A    
C16   C18   1.419187 A    
C70   H38   1.110622 S    
C24   C60   1.484910 S    
C64   H22   1.108865 S    
C48   N3    1.372829 A    
O4    C1    1.307891 A    
C79   H61   1.113431 S    
C60   H14   1.085995 S    
C42   C45   1.415264 A    
C3    C27   1.474368 S    
C20   C22   1.414470 A    
C9    C11   1.410109 A    
O4    Cu2   1.990494 S    
C58   H12   1.084150 S    
O2    Cu2   1.990489 S    
C29   C32   1.424398 A    
O7    C4    1.306235 A    
C11   O24   1.390433 S    
C53   H7    1.076464 S    
C23   C39   1.396711 A    
C30   C34   1.418644 A    
O5    Cu1   1.927336 S    
C24   C40   1.396696 A    
C56   H10   1.081372 S    
C16   C58   1.488226 S    
O25   C65   1.411771 S    
O23   C61   1.418285 S    
C19   C34   1.422939 A    
C42   O30   1.384272 S    
C76   H53   1.110310 S    
C20   C33   1.422946 A    
C77   C78   1.517122 S    
C13   C51   1.485745 S    
C29   C33   1.418641 A    
C63   C64   1.515266 S    
C6    C22   1.414396 A    
O26   C67   1.411842 S    
C75   H51   1.113431 S    
C80   H63   1.110307 S    
C9    C17   1.418905 A    
