data_str_m2_o4_o24_f0_pcu.sym.31
_audit_creation_date              2012-10-26T20:32:00-0400
_audit_creation_method            fapswitch 2.2
_symmetry_space_group_name_H-M    P1
_symmetry_Int_Tables_number       1
_space_group_crystal_system       triclinic
_cell_length_a                    10.632596
_cell_length_b                    10.859593
_cell_length_c                    9.555782
_cell_angle_alpha                 90.776096
_cell_angle_beta                  89.320319
_cell_angle_gamma                 92.573123
_cell_volume                      1102.08117166

loop_
_atom_site_label
_atom_site_type_symbol
_atom_type_description
_atom_site_fract_x
_atom_site_fract_y
_atom_site_fract_z
_atom_type_partial_charge
C1    C     C_R   0.496297 0.262353 0.499303 0.571485
C2    C     C_R   0.502687 0.939612 0.628217 -0.010363
C3    C     C_3   0.412252 0.924813 0.749118 -0.257118
C4    C     C_R   0.259282 0.498941 0.500558 0.581103
C5    C     C_3   0.386815 0.061096 0.735631 -0.125208
C6    C     C_R   0.595224 0.561364 0.073182 0.194704
C7    C     C_R   0.414230 0.429906 0.074406 -0.007533
C8    C     C_R   0.413686 0.430541 0.925674 -0.005825
C9    C     C_R   0.595492 0.559215 0.925157 0.119839
C10   C     C_3   0.629896 0.691730 0.913378 -0.227218
C11   C     C_3   0.623837 0.698497 0.071570 0.130500
C12   C     C_3   0.960820 0.512736 0.367572 -0.076307
C13   C     C_R   0.503607 0.737906 0.501047 0.563043
C14   C     C_R   0.740608 0.501520 0.499464 0.579179
C15   C     C_3   0.037880 0.488603 0.632633 -0.138170
C16   C     C_3   0.950148 0.394487 0.552950 -0.135064
C17   C     C_3   0.877253 0.502212 0.498838 0.000973
C18   C     C_3   0.962211 0.596441 0.578494 -0.131319
C19   C     C_3   0.048539 0.606722 0.447050 -0.154106
C20   C     C_R   0.252017 0.078522 0.691475 0.041691
C21   C     C_R   0.172418 0.144478 0.780527 -0.072689
C22   C     C_R   0.043271 0.145162 0.755061 -0.093759
C23   C     C_3   0.035756 0.406614 0.422798 0.229632
C24   C     C_R   0.992041 0.079367 0.641052 -0.077918
C25   C     C_R   0.070229 0.015048 0.550480 -0.032354
C26   C     C_R   0.199593 0.015423 0.574350 -0.043523
C27   C     C_3   0.122381 0.499073 0.501114 0.029368
C28   C     C_R   0.485882 0.064381 0.622505 0.017708
C29   C     C_R   0.499963 0.129378 0.498215 0.019085
C30   C     C_R   0.533973 0.064831 0.376417 -0.143853
C31   C     C_R   0.539721 0.936766 0.378715 -0.123215
C32   C     C_R   0.515462 0.871835 0.503479 0.002508
Cu1   Cu    Cu3+1 0.499990 0.499980 0.640670 0.952707
Cu2   Cu    Cu3+1 0.500010 0.500020 0.359330 1.029985
H1    H     H_    0.903572 0.309226 0.594548 0.122769
H2    H     H_    0.928411 0.674796 0.642278 0.138260
H3    H     H_    0.091037 0.693648 0.403923 0.128951
H4    H     H_    0.927017 0.517840 0.258897 0.212117
H5    H     H_    0.552187 0.112235 0.278752 0.150860
H6    H     H_    0.558917 0.889178 0.281937 0.177116
H7    H     H_    0.331883 0.858566 0.726798 0.145001
H8    H     H_    0.209237 0.191292 0.873022 0.122960
H9    H     H_    0.982490 0.194966 0.825284 0.141816
H10   H     H_    0.891722 0.078378 0.622706 0.121906
H11   H     H_    0.030474 0.963923 0.462288 0.150352
H12   H     H_    0.459438 0.908923 0.849526 0.125124
H13   H     H_    0.257719 0.962507 0.504431 0.116263
H14   H     H_    0.847352 0.785648 0.349342 0.351813
H15   H     H_    0.887286 0.216350 0.285044 0.337287
H16   H     H_    0.416966 0.116501 0.829214 0.127081
H17   H     H_    0.344083 0.374264 0.130280 0.193051
H18   H     H_    0.342136 0.376579 0.869935 0.121765
H19   H     H_    0.724863 0.707318 0.865159 0.177646
H20   H     H_    0.555098 0.741287 0.863317 0.120268
H21   H     H_    0.543463 0.751416 0.110385 0.089738
H22   H     H_    0.071625 0.478402 0.741201 0.151353
N1    N     N_R   0.500800 0.500930 0.147930 -0.269018
N2    N     N_R   0.500800 0.500890 0.852020 -0.246393
O1    O     O_R   0.500000 0.319640 0.618810 -0.508186
O2    O     O_2   0.798953 0.881492 0.102840 -0.281329
O3    O     O_3   0.769675 0.740134 0.318060 -0.531319
O4    O     O_2   0.104152 0.328348 0.165997 -0.317107
O5    O     O_2   0.198140 0.229091 0.365713 -0.274453
O6    O     O_3   0.963802 0.172469 0.308511 -0.504055
O7    O     O_R   0.500010 0.319680 0.381230 -0.500873
O8    O     O_R   0.316850 0.499950 0.618770 -0.518469
O9    O     O_R   0.316860 0.499990 0.381190 -0.474961
O10   O     O_R   0.499990 0.680320 0.618770 -0.517087
O11   O     O_R   0.500000 0.680360 0.381190 -0.487176
O12   O     O_R   0.683140 0.500010 0.618810 -0.504395
O13   O     O_R   0.683150 0.500050 0.381230 -0.460360
O14   O     O_2   0.875372 0.672617 0.083414 -0.309294
S1    S     S_3+6 0.772854 0.749313 0.142791 -0.023504
S2    S     S_3+6 0.080363 0.282246 0.311875 -0.003488

loop_
_geom_bond_atom_site_label_1
_geom_bond_atom_site_label_2
_ccdc_geom_bond_type
C15   C18   S    
Cu1   N2    S    
C14   O13   A    
C13   C32   S    
C14   C17   S    
C6    C9    A    
C7    C8    A    
C5    C20   S    
C12   C23   S    
C20   C26   A    
C28   C29   A    
C18   C19   S    
C1    O1    A    
C16   H1    S    
C30   C31   A    
C15   C16   S    
O2    S1    D    
C31   H6    S    
C2    C32   A    
C9    N2    A    
C10   H19   S    
C19   H3    S    
C8    N2    A    
C31   C32   A    
C16   C17   S    
C12   C17   S    
Cu2   N1    S    
C1    O7    A    
C23   C27   S    
C19   C27   S    
C9    C10   S    
C8    H18   S    
Cu1   O1    S    
H15   O6    S    
C21   C22   A    
C14   O12   A    
C6    N1    A    
Cu2   O7    S    
Cu1   O8    S    
Cu1   Cu2   S    
C24   C25   A    
C11   S1    S    
C6    C11   S    
O3    S1    S    
C25   C26   A    
C29   C30   A    
C5    C28   S    
C15   C27   S    
C22   H9    S    
C1    C29   S    
C17   C18   S    
Cu2   O11   S    
C26   H13   S    
Cu1   O12   S    
C16   C23   S    
C24   H10   S    
C22   C24   A    
C5    H16   S    
C23   S2    S    
C25   H11   S    
C4    C27   S    
C11   H21   S    
C3    H7    S    
O14   S1    D    
C3    C5    S    
Cu2   O9    S    
C4    O9    A    
O5    S2    D    
C3    H12   S    
C15   H22   S    
C2    C3    S    
C7    H17   S    
C4    O8    A    
H14   O3    S    
C13   O11   A    
C12   C19   S    
C30   H5    S    
C12   H4    S    
C10   H20   S    
C10   C11   S    
C21   H8    S    
C20   C21   A    
O6    S2    S    
O4    S2    D    
C2    C28   A    
C18   H2    S    
Cu2   O13   S    
C7    N1    A    
Cu1   O10   S    
C13   O10   A    
