data_str_m2_o1_o3_f0_pcu.sym.140
_audit_creation_date              2012-12-10T18:03:32-0500
_audit_creation_method            fapswitch 2.2
_symmetry_space_group_name_H-M    P1
_symmetry_Int_Tables_number       1
_space_group_crystal_system       triclinic
_cell_length_a                    10.842846
_cell_length_b                    9.762468
_cell_length_c                    19.333305
_cell_angle_alpha                 90.813316
_cell_angle_beta                  101.273167
_cell_angle_gamma                 90.757878
_cell_volume                      2006.53343078

loop_
_atom_site_label
_atom_site_type_symbol
_atom_type_description
_atom_site_fract_x
_atom_site_fract_y
_atom_site_fract_z
_atom_type_partial_charge
C1    C     C_R   0.869849 0.498532 0.495186 -0.058898
C2    C     C_R   0.127300 0.497535 0.497035 -0.064947
C3    C     C_R   0.525601 0.521722 0.964782 -0.052924
C4    C     C_R   0.322003 0.434178 0.023162 -0.013170
C5    C     C_R   0.536202 0.521558 0.037572 -0.046757
C6    C     C_R   0.312102 0.431959 0.949853 -0.051277
C7    C     C_R   0.434718 0.478038 0.067241 0.200846
C8    C     C_R   0.414025 0.476261 0.920593 0.194264
C9    C     C_R   0.262385 0.499172 0.499475 0.859139
C10   C     C_R   0.736682 0.500101 0.498042 0.869195
C11   C     C_R   0.507202 0.499200 0.368328 0.951008
C12   C     C_R   0.489670 0.499703 0.631919 0.938368
C13   C     C_R   0.059724 0.373236 0.492818 -0.043046
C14   C     C_R   0.935567 0.621417 0.492728 -0.090512
C15   C     C_R   0.932486 0.373624 0.494561 -0.056587
C16   C     C_R   0.064375 0.621305 0.498230 -0.121188
C17   C     C_R   0.420865 0.367096 0.732654 0.273352
C18   C     C_R   0.501754 0.617463 0.253105 0.299969
C19   C     C_R   0.539095 0.375485 0.257283 0.341996
C20   C     C_R   0.457526 0.612095 0.749545 0.225799
C21   C     C_R   0.424884 0.357751 0.805875 0.240368
C22   C     C_R   0.452625 0.608544 0.180163 0.287530
C23   C     C_R   0.496280 0.363000 0.183366 0.279444
C24   C     C_R   0.403782 0.602903 0.809938 0.279371
C25   C     C_R   0.407233 0.477164 0.843762 -0.251488
C26   C     C_R   0.450326 0.480424 0.144877 -0.275935
C27   C     C_R   0.412402 0.072961 0.450780 0.333242
C28   C     C_R   0.591078 0.928817 0.547186 0.332397
C29   C     C_R   0.588774 0.079003 0.548376 0.342435
C30   C     C_R   0.410467 0.922451 0.451831 0.292280
C31   C     C_R   0.457802 0.493859 0.705317 -0.345724
C32   C     C_R   0.513703 0.496653 0.291955 -0.380432
Cu1   Cu    Cu3+1 0.500000 0.640660 0.500000 1.142727
Cu2   Cu    Cu3+1 0.500000 0.359340 0.500000 1.171745
H1    H     H_    0.105524 0.275861 0.490329 0.217457
H2    H     H_    0.887831 0.717409 0.486423 0.232643
H3    H     H_    0.883194 0.276354 0.494311 0.206946
H4    H     H_    0.114279 0.718195 0.503743 0.225038
N1    N     N_R   0.500000 0.852070 0.500000 -0.316403
N2    N     N_R   0.500000 0.147930 0.500000 -0.299598
O1    O     O_R   0.319640 0.618740 0.500000 -0.551000
O2    O     O_R   0.680360 0.381260 0.500000 -0.531110
O3    O     O_R   0.680360 0.618740 0.500000 -0.541435
O4    O     O_R   0.319640 0.381260 0.500000 -0.510866
O5    O     O_R   0.500020 0.618830 0.400190 -0.507369
O6    O     O_R   0.499980 0.381170 0.599810 -0.482655
O7    O     O_R   0.499980 0.618830 0.599810 -0.500862
O8    O     O_R   0.500020 0.381170 0.400190 -0.502696
S1    S     S_3+6 0.305874 0.158508 0.378440 0.122356
O9    O     O_2   0.354969 0.129036 0.312330 -0.180239
O10   O     O_2   0.175049 0.100301 0.369945 -0.209376
O11   O     O_3   0.279735 0.326962 0.377141 -0.539786
H5    H     H_    0.230587 0.345233 0.329410 0.358683
S2    S     S_3+6 0.727850 0.847716 0.601804 0.153097
O12   O     O_2   0.836480 0.875127 0.566156 -0.310711
O13   O     O_2   0.761590 0.909403 0.674511 -0.094505
O14   O     O_3   0.725866 0.680582 0.618961 -0.469154
H6    H     H_    0.815122 0.656397 0.635779 0.362117
S3    S     S_3+6 0.701956 0.172269 0.617464 0.127429
O15   O     O_2   0.668610 0.135018 0.686764 -0.169222
O16   O     O_2   0.832286 0.124583 0.615303 -0.226815
O17   O     O_3   0.720957 0.342826 0.623509 -0.531778
H7    H     H_    0.782992 0.361034 0.667711 0.367554
S4    S     S_3+6 0.283363 0.831862 0.390088 0.122809
O18   O     O_2   0.163679 0.862973 0.414781 -0.276080
O19   O     O_2   0.273464 0.886215 0.317138 -0.132115
O20   O     O_3   0.279616 0.662291 0.375657 -0.527609
H8    H     H_    0.196012 0.641425 0.345899 0.364628
S5    S     S_3+6 0.326274 0.242818 0.677601 0.060483
O21   O     O_2   0.239501 0.314836 0.620399 -0.346055
O22   O     O_2   0.405470 0.145750 0.645003 -0.216257
O23   O     O_3   0.237193 0.151496 0.722949 -0.427315
H9    H     H_    0.176373 0.217573 0.735662 0.369128
S6    S     S_3+6 0.607773 0.754204 0.285891 0.112548
O24   O     O_2   0.707055 0.705818 0.345794 -0.301356
O25   O     O_2   0.672595 0.802632 0.228631 -0.223722
O26   O     O_3   0.530586 0.884645 0.314186 -0.393881
H10   H     H_    0.578711 0.907957 0.361950 0.360168
S7    S     S_3+6 0.668042 0.277688 0.300565 0.088236
O27   O     O_2   0.753481 0.368234 0.352910 -0.318577
O28   O     O_2   0.621650 0.161219 0.338888 -0.238942
O29   O     O_3   0.752714 0.217055 0.242966 -0.464268
H11   H     H_    0.816158 0.157389 0.271078 0.400307
S8    S     S_3+6 0.568203 0.745204 0.751205 0.120440
O30   O     O_2   0.690685 0.682952 0.743818 -0.250320
O31   O     O_2   0.522345 0.841274 0.692128 -0.192839
O32   O     O_3   0.594217 0.832490 0.828322 -0.393537
H12   H     H_    0.644022 0.770446 0.862767 0.363687
S9    S     S_3+6 0.461970 0.200822 0.849706 0.126762
O33   O     O_2   0.554534 0.224940 0.917640 -0.199369
O34   O     O_2   0.344980 0.135572 0.866218 -0.236103
O35   O     O_3   0.528090 0.095932 0.798485 -0.361091
H13   H     H_    0.458072 0.038951 0.772215 0.443273
S10   S     S_3+6 0.392584 0.756597 0.133335 0.104919
O36   O     O_2   0.356605 0.861455 0.183049 -0.114530
O37   O     O_2   0.490943 0.816124 0.096953 -0.243420
O38   O     O_3   0.264013 0.714537 0.072436 -0.520049
H14   H     H_    0.247530 0.796017 0.042263 0.398391
S11   S     S_3+6 0.498208 0.202947 0.138321 0.140241
O39   O     O_2   0.371312 0.172490 0.093169 -0.231781
O40   O     O_2   0.593914 0.210987 0.091667 -0.227115
O41   O     O_3   0.532771 0.073939 0.194744 -0.344693
H15   H     H_    0.600282 0.024038 0.177940 0.426928
S12   S     S_3+6 0.330013 0.744926 0.842343 0.091059
O42   O     O_2   0.302587 0.852386 0.786858 -0.176118
O43   O     O_2   0.208225 0.696793 0.860609 -0.267621
O44   O     O_3   0.422462 0.811657 0.915449 -0.464859
H16   H     H_    0.368245 0.875856 0.935509 0.414537
H17   H     H_    0.604848 0.556084 0.942666 0.150563
H18   H     H_    0.242558 0.401726 0.045558 0.181469
H19   H     H_    0.623565 0.555808 0.071061 0.175291
H20   H     H_    0.225327 0.397255 0.916023 0.173427

loop_
_geom_bond_atom_site_label_1
_geom_bond_atom_site_label_2
_ccdc_geom_bond_type
C23   S11   S    
O32   H12   S    
C17   S5    S    
C30   S4    S    
C10   O2    A    
Cu1   O5    S    
Cu2   O2    S    
S8    O32   S    
S12   O43   D    
O38   H14   S    
C21   S9    S    
O26   H10   S    
Cu1   N1    S    
C7    C26   S    
S6    O25   D    
Cu2   N2    S    
C28   C29   A    
S8    O31   D    
C13   H1    S    
C4    C7    A    
C14   H2    S    
C23   C26   A    
S5    O22   D    
C2    C13   A    
C15   H3    S    
C4    H18   S    
C20   C24   A    
S1    O10   D    
S6    O26   S    
O44   H16   S    
C1    C15   A    
S9    O34   D    
C2    C16   A    
S10   O37   D    
S3    O15   D    
C18   S6    S    
C27   C30   A    
C8    C25   S    
C22   S10   S    
C11   O8    A    
O41   H15   S    
C12   O7    A    
C19   C32   A    
S12   O42   D    
S2    O13   D    
S3    O16   D    
S6    O24   D    
O20   H8    S    
Cu1   O3    S    
S4    O20   S    
C29   S3    S    
Cu2   O4    S    
C24   C25   A    
C4    C6    A    
C3    C8    A    
C5    C7    A    
C28   S2    S    
C6    C8    A    
C5    H19   S    
S10   O38   S    
C17   C21   A    
C24   S12   S    
S4    O19   D    
S5    O23   S    
C19   C23   A    
O17   H7    S    
S11   O39   D    
C27   N2    A    
S1    O11   S    
Cu1   Cu2   S    
S10   O36   D    
S8    O30   D    
S9    O35   S    
C19   S7    S    
C9    O4    A    
Cu2   O6    S    
C12   O6    A    
S11   O40   D    
C11   C32   S    
O29   H11   S    
C13   C15   A    
C12   C31   S    
C17   C31   A    
C14   C16   A    
C11   O5    A    
Cu2   O8    S    
O11   H5    S    
S7    O28   D    
C21   C25   A    
S2    O12   D    
S3    O17   S    
C10   O3    A    
C18   C22   A    
C6    H20   S    
C1    C10   S    
O23   H9    S    
C3    C5    A    
S7    O29   S    
C9    O1    A    
C28   N1    A    
Cu1   O1    S    
S4    O18   D    
C20   S8    S    
O14   H6    S    
C3    H17   S    
Cu1   O7    S    
C29   N2    A    
O35   H13   S    
C30   N1    A    
S5    O21   D    
S7    O27   D    
S11   O41   S    
C18   C32   A    
S1    O9    D    
C22   C26   A    
C1    C14   A    
S9    O33   D    
C2    C9    S    
S2    O14   S    
S12   O44   S    
C27   S1    S    
C16   H4    S    
C20   C31   A    
