data_str_m1_o10_o16_f0_pcu.sym.263
_audit_creation_date              2012-12-10T16:37:39-0500
_audit_creation_method            fapswitch 2.2
_symmetry_space_group_name_H-M    P1
_symmetry_Int_Tables_number       1
_space_group_crystal_system       triclinic
_cell_length_a                    10.901473
_cell_length_b                    10.842565
_cell_length_c                    15.336727
_cell_angle_alpha                 97.10806
_cell_angle_beta                  75.019339
_cell_angle_gamma                 99.079793
_cell_volume                      1722.69526651

loop_
_atom_site_label
_atom_site_type_symbol
_atom_type_description
_atom_site_fract_x
_atom_site_fract_y
_atom_site_fract_z
_atom_type_partial_charge
C1    C     C_R   0.158708 0.478850 0.518294 0.732222
C2    C     C_R   0.551575 0.498477 0.104486 -0.140981
C3    C     C_R   0.590458 0.289890 0.123939 0.487484
C4    C     C_R   0.842154 0.521725 0.480909 0.921338
C5    C     C_R   0.402524 0.567380 0.844687 -0.146787
C6    C     C_2   0.977967 0.535013 0.479781 -0.451987
C7    C     C_2   0.021648 0.462098 0.527228 0.373690
C8    C     C_2   0.556137 0.970717 0.481568 -0.217303
C9    C     C_2   0.457161 0.033991 0.521251 -0.362072
C10   C     C_R   0.466449 0.167378 0.520745 0.983631
C11   C     C_R   0.533092 0.834477 0.482339 0.850807
C12   C     C_R   0.321479 0.691926 0.987819 -0.151520
C13   C     C_R   0.554942 0.444036 0.257682 0.897254
C14   C     C_R   0.441272 0.551650 0.743156 0.821307
C15   C     C_R   0.568823 0.246981 0.039005 -0.222390
C16   C     C_R   0.575067 0.414246 0.159326 -0.272547
C17   C     C_R   0.342215 0.672528 0.892514 -0.185787
C18   C     C_3   0.757747 0.220418 0.158792 0.069527
C19   C     C_3   0.812768 0.119972 0.086057 -0.346459
C20   C     C_3   0.957512 0.127668 0.071616 -0.910441
C21   C     C_3   0.988913 0.303670 0.627992 0.104940
C22   C     C_3   0.040195 0.181101 0.583701 -0.379376
C23   C     C_R   0.367899 0.612851 0.034051 0.443215
C24   C     C_3   0.102902 0.125571 0.645278 -0.863563
C25   C     C_2   0.687268 0.032573 0.438568 0.947869
C26   C     C_3   0.615086 0.142009 0.812334 0.113991
C27   C     C_3   0.608280 0.011837 0.761061 -0.240475
C28   C     C_3   0.727174 0.998483 0.684198 -0.990214
C29   C     C_2   0.586631 0.636490 0.121818 1.027909
C30   C     C_2   0.293762 0.759571 0.845908 1.029493
C31   C     C_3   0.243743 0.519931 0.161453 0.058135
C32   C     C_3   0.108195 0.556301 0.191450 -0.311836
C33   C     C_3   0.012641 0.449297 0.234956 -0.967847
C34   C     C_R   0.440985 0.517985 0.984829 0.000659
C35   C     C_2   0.248554 0.793074 0.041129 0.980133
C36   C     C_2   0.358104 0.287909 0.799937 0.999541
C37   C     C_R   0.430119 0.479394 0.895739 -0.131995
C38   C     C_R   0.507487 0.448914 0.026091 -0.010236
C39   C     C_R   0.525281 0.324404 0.989932 -0.055364
C40   C     C_R   0.490954 0.276174 0.908601 0.421693
C41   C     C_R   0.435587 0.351129 0.864310 -0.195550
H1    H     H_    0.362148 0.984912 0.547440 0.163501
H2    H     H_    0.005593 0.220115 0.048235 0.260690
H3    H     H_    0.907024 0.280138 0.686359 0.156965
H4    H     H_    0.060643 0.367773 0.657902 0.143306
H5    H     H_    0.960349 0.112328 0.568036 0.249232
H6    H     H_    0.111374 0.196654 0.518659 0.259863
H7    H     H_    0.191459 0.187448 0.653029 0.293713
H8    H     H_    0.129005 0.032117 0.614658 0.255398
H9    H     H_    0.036397 0.114556 0.713021 0.269709
H10   H     H_    0.798113 0.180944 0.378419 0.329805
H11   H     H_    0.695558 0.154866 0.846273 0.107891
H12   H     H_    0.578853 0.150189 0.014443 0.197408
H13   H     H_    0.634621 0.213492 0.762220 0.163924
H14   H     H_    0.598174 0.939468 0.808747 0.234936
H15   H     H_    0.523374 0.995592 0.731698 0.281113
H16   H     H_    0.813897 0.013115 0.711315 0.270093
H17   H     H_    0.718903 0.902899 0.648814 0.268954
H18   H     H_    0.736199 0.067848 0.634610 0.285698
H19   H     H_    0.663172 0.800199 0.067744 0.343688
H20   H     H_    0.166039 0.784472 0.777227 0.345515
H21   H     H_    0.270118 0.493538 0.221323 0.181459
H22   H     H_    0.244696 0.434529 0.112603 0.125451
H23   H     H_    0.043108 0.606224 0.440520 0.125124
H24   H     H_    0.106361 0.640322 0.241070 0.254922
H25   H     H_    0.079251 0.579497 0.131683 0.223125
H26   H     H_    0.013767 0.364337 0.186581 0.258036
H27   H     H_    0.914672 0.476782 0.254223 0.281308
H28   H     H_    0.037286 0.426754 0.296503 0.268942
H29   H     H_    0.094456 0.884442 0.063365 0.345897
H30   H     H_    0.204094 0.378476 0.859046 0.309365
H31   H     H_    0.780027 0.206400 0.223200 0.191075
H32   H     H_    0.806610 0.315614 0.140444 0.117024
H33   H     H_    0.766884 0.025624 0.106817 0.247594
H34   H     H_    0.792234 0.132380 0.020701 0.209577
H35   H     H_    0.981788 0.113882 0.135470 0.267670
H36   H     H_    0.993706 0.053394 0.018890 0.287423
O1    O     O_3   0.500000 0.500000 0.500000 -0.509969
O2    O     O_R   0.463530 0.379110 0.309170 -0.612548
O3    O     O_R   0.388210 0.611730 0.699360 -0.622063
O4    O     O_R   0.624720 0.532760 0.292120 -0.619241
O5    O     O_R   0.523540 0.476390 0.699360 -0.644641
O6    O     O_3   0.622656 0.207671 0.173952 -0.609040
O7    O     O_3   0.941329 0.358584 0.566236 -0.614128
O8    O     O_2   0.780838 0.980477 0.433600 -0.620580
O9    O     O_R   0.704486 0.148779 0.403310 -0.807631
O10   O     O_3   0.498025 0.151277 0.877860 -0.595320
O11   O     O_2   0.561398 0.688506 0.198474 -0.585211
O12   O     O_R   0.537910 0.240570 0.564270 -0.591811
O13   O     O_R   0.645918 0.707530 0.048522 -0.796931
O14   O     O_2   0.337685 0.870456 0.847586 -0.619477
O15   O     O_R   0.192052 0.716006 0.805435 -0.746618
O16   O     O_3   0.332401 0.624045 0.128186 -0.619933
O17   O     O_2   0.285782 0.855739 0.103575 -0.554885
O18   O     O_R   0.136105 0.814950 0.021235 -0.800706
O19   O     O_2   0.398349 0.204758 0.743671 -0.582868
O20   O     O_R   0.236846 0.319417 0.804368 -0.824588
O21   O     O_R   0.438950 0.782540 0.540270 -0.648460
O22   O     O_R   0.222350 0.398740 0.468260 -0.659498
O23   O     O_R   0.800790 0.578160 0.427210 -0.652985
O24   O     O_R   0.212140 0.566330 0.564260 -0.632845
O25   O     O_R   0.764730 0.456770 0.540270 -0.573744
O26   O     O_R   0.412790 0.208310 0.468260 -0.631360
O27   O     O_R   0.610350 0.768590 0.427210 -0.586985
Zn1   Zn    Zn3+2 0.580150 0.419820 0.574680 1.029046
Zn2   Zn    Zn3+2 0.401380 0.373730 0.437510 1.018726
Zn3   Zn    Zn3+2 0.631680 0.593260 0.413140 1.032500
Zn4   Zn    Zn3+2 0.386790 0.613180 0.574670 0.998291

loop_
_geom_bond_atom_site_label_1
_geom_bond_atom_site_label_2
_ccdc_geom_bond_type
O4    Zn3   S    
C8    C25   S    
C5    C37   A    
C34   C37   A    
C19   C20   S    
C1    O22   A    
C13   O2    A    
C3    C15   A    
C28   H16   S    
H30   O20   S    
C12   C23   A    
C26   C27   S    
C20   H36   S    
O1    Zn1   S    
C15   H12   S    
C40   O10   S    
C10   O26   A    
C38   C39   A    
C27   H14   S    
C28   H18   S    
C5    C17   A    
C13   O4    A    
O21   Zn4   S    
C20   H35   S    
O25   Zn1   S    
O1    Zn4   S    
C18   C19   S    
O5    Zn1   S    
C6    H23   S    
C36   O19   D    
C29   O11   D    
C10   O12   A    
C26   O10   S    
C4    O25   A    
C12   C17   A    
C11   O27   A    
C14   O3    A    
C2    C16   A    
C9    C10   S    
H20   O15   S    
C33   H28   S    
O24   Zn4   S    
C22   H6    S    
C1    C7    S    
C21   C22   S    
C18   H31   S    
C17   C30   S    
C31   H21   S    
C36   C41   S    
C26   H13   S    
H10   O9    S    
C29   O13   S    
C21   H4    S    
C24   H9    S    
C24   H7    S    
C31   H22   S    
C4    C6    S    
C39   C40   A    
C27   H15   S    
C8    C9    D    
C31   O16   S    
C23   O16   S    
O2    Zn2   S    
O1    Zn3   S    
C26   H11   S    
C21   H3    S    
C2    C38   A    
C31   C32   S    
C21   O7    S    
C23   C34   A    
C25   O8    D    
C18   O6    S    
C9    H1    S    
C12   C35   S    
C15   C39   A    
C5    C14   S    
C36   O20   S    
C30   O15   S    
C40   C41   A    
C22   H5    S    
C18   H32   S    
H19   O13   S    
C4    O23   A    
C3    O6    S    
C22   C24   S    
C14   O5    A    
C1    O24   A    
C20   H2    S    
C11   O21   A    
C33   H26   S    
C32   H25   S    
C35   O17   D    
C24   H8    S    
O22   Zn2   S    
O23   Zn3   S    
C34   C38   A    
C19   H33   S    
C30   O14   D    
C6    C7    D    
C28   H17   S    
O3    Zn4   S    
O1    Zn2   S    
C32   C33   S    
C19   H34   S    
H29   O18   S    
C8    C11   S    
C25   O9    S    
C7    O7    S    
O26   Zn2   S    
C37   C41   A    
C2    C29   S    
C13   C16   S    
O12   Zn1   S    
C27   C28   S    
C32   H24   S    
O27   Zn3   S    
C3    C16   A    
C33   H27   S    
C35   O18   S    
