data_str_m2_o1_o17_f0_pcu.sym.52
_audit_creation_date              2012-10-26T20:43:03-0400
_audit_creation_method            fapswitch 2.2
_symmetry_space_group_name_H-M    P1
_symmetry_Int_Tables_number       1
_space_group_crystal_system       triclinic
_cell_length_a                    10.842113
_cell_length_b                    9.670109
_cell_length_c                    15.051455
_cell_angle_alpha                 89.999987
_cell_angle_beta                  91.938405
_cell_angle_gamma                 90.0
_cell_volume                      1577.15796941

loop_
_atom_site_label
_atom_site_type_symbol
_atom_type_description
_atom_site_fract_x
_atom_site_fract_y
_atom_site_fract_z
_atom_type_partial_charge
Br1   Br    Br    0.241489 0.460222 0.739100 -0.505479
Br2   Br    Br    0.758511 0.460221 0.260899 -0.505486
Br3   Br    Br    0.307434 0.163081 0.364374 -0.505197
Br4   Br    Br    0.691377 0.831163 0.636704 -0.395282
Br5   Br    Br    0.692566 0.163081 0.635626 -0.505196
Br6   Br    Br    0.308622 0.831163 0.363296 -0.395283
C1    C     C_R   0.262528 0.500040 0.500735 0.567770
C2    C     C_R   0.128414 0.500076 0.500854 0.028815
C3    C     C_R   0.421496 0.073040 0.444484 0.264486
C4    C     C_R   0.578417 0.925645 0.555752 0.265741
C5    C     C_R   0.578504 0.073040 0.555516 0.264487
C6    C     C_R   0.421583 0.925645 0.444248 0.265740
C7    C     C_R   0.497200 0.500728 0.329191 0.602063
C8    C     C_R   0.502800 0.500728 0.670809 0.602063
C9    C     C_R   0.613250 0.529548 0.816523 0.234737
C10   C     C_R   0.386750 0.529548 0.183477 0.234737
C11   C     C_R   0.502370 0.505063 0.767553 0.027299
C12   C     C_R   0.737471 0.500040 0.499264 0.567770
C13   C     C_R   0.497629 0.505063 0.232447 0.027300
C14   C     C_R   0.388936 0.501629 0.810092 0.129446
C15   C     C_R   0.611063 0.501629 0.189907 0.129438
C16   C     C_R   0.386427 0.522273 0.903019 0.034913
C17   C     C_R   0.613572 0.522273 0.096981 0.034905
C18   C     C_R   0.499719 0.523767 0.953080 -0.063284
C19   C     C_R   0.500280 0.523767 0.046920 -0.063283
C20   C     C_R   0.612563 0.530545 0.909487 -0.015238
C21   C     C_R   0.387436 0.530545 0.090513 -0.015236
C22   C     C_R   0.275723 0.546219 0.947843 0.287821
C23   C     C_R   0.276916 0.545105 0.040567 -0.090273
C24   C     C_R   0.724276 0.546219 0.052157 0.287819
C25   C     C_3   0.779935 0.449246 0.743122 -0.020658
C26   C     C_3   0.917391 0.476194 0.739033 -0.337861
C27   C     C_3   0.220064 0.449247 0.256878 -0.020657
C28   C     C_3   0.082609 0.476196 0.260968 -0.337861
C29   C     C_3   0.155953 0.728114 0.904932 -0.008554
C30   C     C_3   0.048188 0.773798 0.844676 -0.337332
C31   C     C_3   0.844024 0.728121 0.095084 -0.008545
C32   C     C_3   0.951805 0.773800 0.155329 -0.337327
C33   C     C_R   0.723083 0.545106 0.959433 -0.090266
C34   C     C_R   0.063859 0.374530 0.500539 -0.121555
C35   C     C_R   0.936135 0.625631 0.499410 -0.124077
C36   C     C_R   0.936141 0.374530 0.499461 -0.121555
C37   C     C_R   0.063865 0.625631 0.500591 -0.124077
C38   C     C_R   0.871586 0.500076 0.499146 0.028815
Cu1   Cu    Cu3+1 0.500000 0.640660 0.500000 1.102053
Cu2   Cu    Cu3+1 0.500000 0.359340 0.500000 1.082207
H1    H     H_    0.190079 0.558461 0.072912 0.162057
H2    H     H_    0.962648 0.386813 0.707228 0.170096
H3    H     H_    0.934330 0.570409 0.699121 0.188479
H4    H     H_    0.254557 0.429764 0.325410 0.194588
H5    H     H_    0.233178 0.355787 0.214597 0.164101
H6    H     H_    0.042171 0.489191 0.192831 0.203899
H7    H     H_    0.037351 0.386812 0.292770 0.170097
H8    H     H_    0.065671 0.570408 0.300884 0.188475
H9    H     H_    0.240730 0.779945 0.881235 0.152992
H10   H     H_    0.138020 0.763704 0.973661 0.125226
H11   H     H_    0.961196 0.726359 0.866688 0.165742
H12   H     H_    0.809920 0.558463 0.927088 0.162061
H13   H     H_    0.038686 0.888034 0.847482 0.128052
H14   H     H_    0.064690 0.743126 0.775017 0.190332
H15   H     H_    0.759247 0.779929 0.118804 0.152999
H16   H     H_    0.861930 0.763738 0.026354 0.125224
H17   H     H_    0.038794 0.726373 0.133300 0.165733
H18   H     H_    0.961299 0.888037 0.152532 0.128054
H19   H     H_    0.935325 0.743114 0.224989 0.190325
H20   H     H_    0.111680 0.276236 0.500983 0.181945
H21   H     H_    0.888311 0.723927 0.498913 0.176239
H22   H     H_    0.888320 0.276236 0.499016 0.181945
H23   H     H_    0.111689 0.723927 0.501089 0.176239
H24   H     H_    0.745443 0.429765 0.674589 0.194588
H25   H     H_    0.766820 0.355786 0.785402 0.164102
H26   H     H_    0.957828 0.489183 0.807171 0.203897
N1    N     N_R   0.500000 0.852070 0.500000 -0.269013
N2    N     N_R   0.500000 0.147930 0.500000 -0.247694
O1    O     O_R   0.319640 0.618740 0.499990 -0.478846
O2    O     O_3   0.279936 0.567699 0.225246 -0.548562
O3    O     O_3   0.167518 0.582330 0.902347 -0.529557
O4    O     O_3   0.832480 0.582333 0.097652 -0.529560
O5    O     O_R   0.680360 0.381260 0.500010 -0.482220
O6    O     O_R   0.680360 0.618740 0.500010 -0.478847
O7    O     O_R   0.319640 0.381260 0.499990 -0.482220
O8    O     O_R   0.499970 0.618800 0.370260 -0.450330
O9    O     O_R   0.500030 0.381200 0.629740 -0.466305
O10   O     O_R   0.500030 0.618800 0.629740 -0.450328
O11   O     O_R   0.499970 0.381200 0.370260 -0.466304
O12   O     O_3   0.720064 0.567699 0.774754 -0.548564

loop_
_geom_bond_atom_site_label_1
_geom_bond_atom_site_label_2
_ccdc_geom_bond_type
C21   C23   A    
C35   C37   A    
C29   C30   S    
C2    C37   A    
C8    O10   A    
C30   H13   S    
C31   H16   S    
C1    C2    S    
C26   H26   S    
Cu1   Cu2   S    
C23   H1    S    
C22   C23   A    
C13   C15   A    
C18   C20   A    
Br5   C5    S    
Br6   C6    S    
Cu2   O5    S    
C4    N1    A    
C20   C33   A    
C11   C14   A    
Cu1   N1    S    
C25   H24   S    
Cu1   O8    S    
C12   O5    A    
Cu2   O11   S    
C10   C21   A    
C34   C36   A    
C37   H23   S    
C25   O12   S    
C34   H20   S    
C6    N1    A    
C36   H22   S    
C26   H2    S    
C8    C11   S    
C36   C38   A    
C8    O9    A    
C32   H18   S    
C7    C13   S    
C29   H9    S    
C17   C24   A    
C18   C19   A    
C35   H21   S    
C30   H11   S    
C9    C20   A    
C1    O1    A    
C27   H4    S    
C33   H12   S    
C7    O8    A    
C29   O3    S    
C31   C32   S    
Br3   C3    S    
C12   C38   S    
Cu2   O7    S    
C27   O2    S    
C25   C26   S    
C32   H19   S    
Br2   C15   S    
C27   C28   S    
C22   O3    S    
C9    O12   S    
C1    O7    A    
C14   C16   A    
C28   H8    S    
C15   C17   A    
C35   C38   A    
C16   C18   A    
Cu1   O10   S    
C27   H5    S    
C3    N2    A    
Br4   C4    S    
Cu2   N2    S    
C32   H17   S    
C9    C11   A    
Br1   C14   S    
C29   H10   S    
C10   O2    S    
C30   H14   S    
C5    N2    A    
C31   H15   S    
C19   C21   A    
C31   O4    S    
C28   H6    S    
Cu1   O1    S    
C10   C13   A    
C25   H25   S    
C24   C33   A    
Cu1   O6    S    
C17   C19   A    
C3    C6    A    
C26   H3    S    
C4    C5    A    
Cu2   O9    S    
C24   O4    S    
C28   H7    S    
C12   O6    A    
C7    O11   A    
C16   C22   A    
C2    C34   A    
