data_str_m2_o4_o19_f0_pcu.sym.79
_audit_creation_date              2012-10-26T20:31:25-0400
_audit_creation_method            fapswitch 2.2
_symmetry_space_group_name_H-M    P1
_symmetry_Int_Tables_number       1
_space_group_crystal_system       triclinic
_cell_length_a                    11.699231
_cell_length_b                    10.849675
_cell_length_c                    9.694365
_cell_angle_alpha                 91.810165
_cell_angle_beta                  89.570948
_cell_angle_gamma                 90.791049
_cell_volume                      1229.77150967

loop_
_atom_site_label
_atom_site_type_symbol
_atom_type_description
_atom_site_fract_x
_atom_site_fract_y
_atom_site_fract_z
_atom_type_partial_charge
C1    C     C_R   0.506625 0.262775 0.497428 0.520331
C2    C     C_R   0.407565 0.458366 0.073932 0.364412
C3    C     C_R   0.405414 0.465042 0.926687 0.359847
C4    C     C_R   0.284426 0.500264 0.500012 0.553967
C5    C     C_R   0.595365 0.536464 0.926568 0.036421
C6    C     C_3   0.650180 0.661191 0.917818 -0.133120
C7    C     C_3   0.628729 0.677574 0.073558 0.145316
C8    C     C_R   0.500877 0.737175 0.502453 0.551680
C9    C     C_R   0.715607 0.501609 0.499467 0.526245
C10   C     C_1   0.162616 0.501289 0.498536 -0.009407
C11   C     C_1   0.060030 0.502005 0.496538 -0.049957
C12   C     C_R   0.517160 0.128580 0.488481 -0.041454
C13   C     C_1   0.940098 0.502475 0.496592 -0.035167
C14   C     C_1   0.837505 0.502396 0.497822 -0.013890
C15   C     C_R   0.594992 0.065384 0.568601 0.023789
C16   C     C_1   0.449479 0.088128 0.251714 0.213136
C17   C     C_3   0.454726 0.786440 0.022800 -0.009607
C18   C     C_3   0.338078 0.800577 0.089432 -0.343242
C19   C     C_1   0.313217 0.884153 0.400695 0.176252
C20   C     C_3   0.750221 0.248484 0.732698 0.028040
C21   C     C_3   0.869145 0.290024 0.778048 -0.373059
C22   C     C_3   0.275618 0.310965 0.137613 0.024340
C23   C     C_R   0.449448 0.057731 0.395257 -0.044934
C24   C     C_3   0.146349 0.295403 0.145015 -0.376196
C25   C     C_3   0.231208 0.544280 0.878850 0.013761
C26   C     C_3   0.110185 0.510065 0.833900 -0.358135
C27   C     C_1   0.771983 0.652973 0.882279 0.167680
C28   C     C_R   0.426751 0.934313 0.423864 -0.018841
C29   C     C_R   0.502492 0.871175 0.506401 -0.012537
C30   C     C_R   0.591289 0.937352 0.571504 -0.025254
C31   C     C_3   0.619422 0.941140 0.721033 -0.194748
C32   C     C_3   0.627293 0.080394 0.717058 0.146861
C33   C     C_R   0.591051 0.544908 0.073693 0.098282
Cu1   Cu    Cu3+1 0.499990 0.499980 0.640670 0.952372
Cu2   Cu    Cu3+1 0.500010 0.500020 0.359330 1.030919
H1    H     H_    0.606950 0.722924 0.847964 0.125322
H2    H     H_    0.321841 0.725586 0.162671 0.208817
H3    H     H_    0.687056 0.294042 0.803458 0.152595
H4    H     H_    0.737289 0.277503 0.625313 0.155684
H5    H     H_    0.934597 0.250102 0.706780 0.161365
H6    H     H_    0.875821 0.392060 0.776877 0.128581
H7    H     H_    0.885617 0.259937 0.884445 0.160500
H8    H     H_    0.310382 0.270205 0.231272 0.175230
H9    H     H_    0.306268 0.260313 0.042859 0.161220
H10   H     H_    0.123840 0.196888 0.159721 0.113101
H11   H     H_    0.111062 0.351325 0.232836 0.168435
H12   H     H_    0.707708 0.693060 0.135271 0.139406
H13   H     H_    0.107368 0.324319 0.047700 0.156285
H14   H     H_    0.263880 0.621473 0.816055 0.141435
H15   H     H_    0.225632 0.579839 0.987256 0.150399
H16   H     H_    0.054771 0.493742 0.925077 0.136653
H17   H     H_    0.073903 0.586970 0.776461 0.153416
H18   H     H_    0.109322 0.425233 0.766843 0.173960
H19   H     H_    0.545341 0.909224 0.781292 0.071268
H20   H     H_    0.701823 0.895565 0.741833 0.180898
H21   H     H_    0.562893 0.127259 0.785160 0.127647
H22   H     H_    0.441549 0.715117 0.940824 0.110756
H23   H     H_    0.477630 0.875724 0.978185 0.157142
H24   H     H_    0.332035 0.892359 0.140652 0.173097
H25   H     H_    0.270935 0.796746 0.009000 0.076618
N1    N     N_R   0.500710 0.500930 0.147930 -0.230574
N2    N     N_R   0.500710 0.500890 0.852020 -0.275542
N3    N     N_1   0.453661 0.109551 0.135609 -0.361036
N4    N     N_1   0.221792 0.844366 0.384572 -0.313150
N5    N     N_1   0.867941 0.647724 0.854003 -0.333931
O1    O     O_R   0.500000 0.319640 0.618810 -0.505134
O2    O     O_3   0.742029 0.119161 0.736474 -0.549187
O3    O     O_3   0.304955 0.437301 0.141322 -0.548589
O4    O     O_3   0.302917 0.440251 0.861356 -0.529665
O5    O     O_R   0.500010 0.319680 0.381230 -0.497290
O6    O     O_R   0.337190 0.499990 0.618790 -0.457144
O7    O     O_R   0.337200 0.500030 0.381210 -0.444733
O8    O     O_R   0.499990 0.680320 0.618770 -0.534678
O9    O     O_R   0.500000 0.680360 0.381190 -0.438470
O10   O     O_R   0.662800 0.499970 0.618790 -0.513157
O11   O     O_R   0.662810 0.500010 0.381210 -0.501460
O12   O     O_3   0.539148 0.758057 0.121391 -0.520195

loop_
_geom_bond_atom_site_label_1
_geom_bond_atom_site_label_2
_ccdc_geom_bond_type
Cu2   O9    S    
C20   O2    S    
Cu1   O1    S    
C15   C32   S    
C12   C23   A    
C24   H10   S    
C28   C29   A    
C3    O4    S    
C18   H2    S    
C2    O3    S    
C30   C31   S    
Cu1   N2    S    
Cu1   Cu2   S    
C25   H15   S    
C22   H9    S    
C31   C32   S    
Cu2   O5    S    
C5    C33   A    
C9    O11   A    
C2    N1    A    
C17   H23   S    
C7    O12   S    
C13   C14   T    
C7    C33   S    
C6    C27   S    
C1    C12   S    
C17   O12   S    
C17   C18   S    
Cu2   O11   S    
C24   H13   S    
C20   H4    S    
C25   C26   S    
C7    H12   S    
C9    C14   S    
C29   C30   A    
C27   N5    T    
C26   H17   S    
C20   H3    S    
C22   H8    S    
C12   C15   A    
C19   N4    T    
C8    O9    A    
C1    O1    A    
Cu2   N1    S    
C23   C28   A    
C19   C28   S    
C22   O3    S    
C32   O2    S    
C21   H6    S    
C18   H25   S    
C16   N3    T    
Cu2   O7    S    
C16   C23   S    
C22   C24   S    
C25   O4    S    
C8    C29   S    
C4    C10   S    
C26   H18   S    
C4    O7    A    
C15   C30   A    
C3    N2    A    
C6    C7    S    
Cu1   O10   S    
C1    O5    A    
C24   H11   S    
C2    C3    A    
C26   H16   S    
C11   C13   S    
C5    C6    S    
C21   H5    S    
C8    O8    A    
C6    H1    S    
C5    N2    A    
C31   H19   S    
C25   H14   S    
C10   C11   T    
Cu1   O8    S    
C21   H7    S    
C18   H24   S    
C20   C21   S    
C33   N1    A    
C9    O10   A    
C31   H20   S    
Cu1   O6    S    
C32   H21   S    
C4    O6    A    
C17   H22   S    
