data_str_m2_o4_o22_f0_pcu.sym.59
_audit_creation_date              2012-10-26T18:43:32-0400
_audit_creation_method            fapswitch 2.2
_symmetry_space_group_name_H-M    P1
_symmetry_Int_Tables_number       1
_space_group_crystal_system       triclinic
_cell_length_a                    10.754655
_cell_length_b                    10.81384
_cell_length_c                    9.588638
_cell_angle_alpha                 89.782506
_cell_angle_beta                  90.169204
_cell_angle_gamma                 91.356589
_cell_volume                      1114.82498089

loop_
_atom_site_label
_atom_site_type_symbol
_atom_type_description
_atom_site_fract_x
_atom_site_fract_y
_atom_site_fract_z
_atom_type_partial_charge
C1    C     C_R   0.497197 0.262464 0.500056 0.544145
C2    C     C_R   0.492250 0.936049 0.624879 0.079081
C3    C     C_3   0.587739 0.932083 0.738061 -0.276695
C4    C     C_R   0.260168 0.495662 0.499577 0.559971
C5    C     C_3   0.587780 0.072271 0.737768 -0.259908
C6    C     C_R   0.544941 0.600323 0.073775 0.129105
C7    C     C_R   0.440636 0.409367 0.076357 0.038970
C8    C     C_R   0.436402 0.410110 0.927860 0.102527
C9    C     C_R   0.551882 0.596721 0.927319 0.113576
C10   C     C_3   0.684833 0.643503 0.931993 -0.111497
C11   C     C_3   0.670383 0.658967 0.088634 -0.236055
C12   C     C_3   0.877458 0.488298 0.495890 -0.019209
C13   C     C_R   0.497866 0.737546 0.499781 0.567343
C14   C     C_R   0.739481 0.492921 0.499494 0.533859
C15   C     C_3   0.069850 0.404033 0.613719 -0.222118
C16   C     C_3   0.927015 0.394008 0.604160 -0.232984
C17   C     C_3   0.072455 0.625149 0.522153 -0.122973
C18   C     C_3   0.071638 0.446681 0.351398 -0.097154
C19   C     C_3   0.121965 0.491916 0.497681 0.003003
C20   C     C_2   0.358340 0.312305 0.860736 0.222277
C21   C     C_2   0.778943 0.546960 0.902076 0.254996
C22   C     C_2   0.127798 0.689053 0.648976 0.251873
C23   C     C_3   0.928937 0.619609 0.532169 -0.261814
C24   C     C_2   0.124147 0.324089 0.304217 0.239108
C25   C     C_2   0.863711 0.336044 0.289194 0.273644
C26   C     C_3   0.926847 0.452178 0.347708 -0.085305
C27   C     C_R   0.492020 0.063333 0.624956 0.055360
C28   C     C_R   0.484584 0.129107 0.500098 0.007978
C29   C     C_R   0.460489 0.064136 0.375708 -0.126510
C30   C     C_R   0.461133 0.935126 0.375540 -0.139786
C31   C     C_R   0.485567 0.870548 0.499800 0.024217
Cu1   Cu    Cu3+1 0.499990 0.499980 0.640670 0.944436
Cu2   Cu    Cu3+1 0.500010 0.500020 0.359330 0.965926
H1    H     H_    0.096574 0.439447 0.718513 0.131899
H2    H     H_    0.394264 0.336220 0.134910 0.151480
H3    H     H_    0.701147 0.731846 0.875326 0.121105
H4    H     H_    0.664780 0.757326 0.120875 0.107869
H5    H     H_    0.897910 0.298167 0.575767 0.119641
H6    H     H_    0.887868 0.410197 0.708498 0.167867
H7    H     H_    0.897007 0.645409 0.638187 0.172047
H8    H     H_    0.105647 0.515031 0.272023 0.094712
H9    H     H_    0.447024 0.112467 0.277867 0.159485
H10   H     H_    0.110234 0.310791 0.607122 0.181388
H11   H     H_    0.319810 0.323794 0.758220 0.169810
H12   H     H_    0.903670 0.529084 0.275241 0.141834
H13   H     H_    0.749981 0.451011 0.887777 0.154446
H14   H     H_    0.734208 0.603694 0.153321 0.186042
H15   H     H_    0.110683 0.652311 0.752735 0.156119
H16   H     H_    0.174430 0.320373 0.206474 0.132584
H17   H     H_    0.864696 0.249506 0.346535 0.141422
H18   H     H_    0.098056 0.682810 0.429448 0.152743
H19   H     H_    0.889822 0.688972 0.459010 0.108811
H20   H     H_    0.448167 0.886813 0.277630 0.144468
H21   H     H_    0.549348 0.890968 0.835729 0.152436
H22   H     H_    0.677106 0.893672 0.702113 0.127318
H23   H     H_    0.550423 0.111487 0.835549 0.191019
H24   H     H_    0.676965 0.115310 0.701428 0.132452
N1    N     N_R   0.500800 0.500930 0.147930 -0.244341
N2    N     N_R   0.500800 0.500890 0.852020 -0.276346
O1    O     O_R   0.500000 0.319640 0.618810 -0.528440
O2    O     O_2   0.889559 0.574871 0.902806 -0.554063
O3    O     O_2   0.191722 0.783158 0.635797 -0.484497
O4    O     O_2   0.109096 0.229139 0.371916 -0.524720
O5    O     O_2   0.810660 0.339002 0.176506 -0.509402
O6    O     O_R   0.500010 0.319680 0.381230 -0.503386
O7    O     O_R   0.317690 0.499960 0.618790 -0.526980
O8    O     O_R   0.317700 0.500000 0.381210 -0.515177
O9    O     O_R   0.499990 0.680320 0.618770 -0.480210
O10   O     O_R   0.500000 0.680360 0.381190 -0.512486
O11   O     O_R   0.682300 0.500000 0.618790 -0.520215
O12   O     O_R   0.682310 0.500040 0.381210 -0.489185
O13   O     O_2   0.332308 0.216215 0.922574 -0.548935

loop_
_geom_bond_atom_site_label_1
_geom_bond_atom_site_label_2
_ccdc_geom_bond_type
C5    H23   S    
C4    O8    A    
C22   H15   S    
C10   H3    S    
C11   H14   S    
Cu2   N1    S    
Cu2   O10   S    
C29   H9    S    
C22   O3    D    
C29   C30   A    
C14   O12   A    
C6    N1    A    
C7    N1    A    
C21   O2    D    
C17   C22   S    
C26   H12   S    
C5    H24   S    
Cu1   O9    S    
Cu1   Cu2   S    
C17   H18   S    
C6    C9    A    
C2    C3    S    
C25   C26   S    
C3    C5    S    
C15   H10   S    
C7    C8    A    
C10   C21   S    
C1    C28   S    
C17   C23   S    
C15   C19   S    
C14   O11   A    
C12   C23   S    
C23   H19   S    
C2    C27   A    
C13   O10   A    
C3    H21   S    
C8    C20   S    
C18   C24   S    
C27   C28   A    
C28   C29   A    
C20   H11   S    
C12   C14   S    
C21   H13   S    
C24   O4    D    
C8    N2    A    
C30   C31   A    
C30   H20   S    
C1    O1    A    
C10   C11   S    
Cu2   O12   S    
C16   H6    S    
Cu2   O6    S    
C23   H7    S    
C12   C16   S    
C6    C11   S    
C25   O5    D    
Cu2   O8    S    
Cu1   O7    S    
C18   C19   S    
C9    C10   S    
C18   H8    S    
C16   H5    S    
C24   H16   S    
C11   H4    S    
Cu1   O1    S    
C25   H17   S    
C20   O13   D    
Cu1   O11   S    
C15   H1    S    
Cu1   N2    S    
C17   C19   S    
C3    H22   S    
C5    C27   S    
C4    C19   S    
C7    H2    S    
C1    O6    A    
C13   C31   S    
C4    O7    A    
C15   C16   S    
C12   C26   S    
C2    C31   A    
C9    N2    A    
C13   O9    A    
C18   C26   S    
