data_str_m2_o1_o13_f0_pcu.sym.110
_audit_creation_date              2012-12-10T17:56:16-0500
_audit_creation_method            fapswitch 2.2
_symmetry_space_group_name_H-M    P1
_symmetry_Int_Tables_number       1
_space_group_crystal_system       triclinic
_cell_length_a                    13.108517
_cell_length_b                    10.811263
_cell_length_c                    9.752796
_cell_angle_alpha                 88.081279
_cell_angle_beta                  95.915768
_cell_angle_gamma                 100.515938
_cell_volume                      1351.5588302

loop_
_atom_site_label
_atom_site_type_symbol
_atom_type_description
_atom_site_fract_x
_atom_site_fract_y
_atom_site_fract_z
_atom_type_partial_charge
C1    C     C_R   0.496358 0.261538 0.500678 0.835863
C2    C     C_R   0.698949 0.500026 0.525065 0.877687
C3    C     C_R   0.812966 0.510153 0.535156 -0.245499
C4    C     C_R   0.190084 0.510746 0.460644 -0.200365
C5    C     C_R   0.024324 0.471733 0.315623 0.485929
C6    C     C_R   0.980709 0.594348 0.655463 0.447456
C7    C     C_R   0.132796 0.478316 0.334561 -0.369690
C8    C     C_R   0.872608 0.566553 0.650446 -0.338979
C9    C     C_R   0.141346 0.550209 0.569811 0.389888
C10   C     C_R   0.862837 0.479115 0.422301 0.452707
C11   C     C_R   0.032292 0.547070 0.553258 -0.166078
C12   C     C_R   0.497164 0.736275 0.497802 0.844582
C13   C     C_R   0.972910 0.497957 0.429889 -0.131793
C14   C     C_R   0.544928 0.076206 0.402554 -0.171147
C15   C     C_R   0.431494 0.914943 0.583212 -0.149273
C16   C     C_R   0.544871 0.948522 0.399390 -0.130336
C17   C     C_R   0.429026 0.042670 0.582401 -0.055352
C18   C     C_3   0.774871 0.312521 0.294175 0.104761
C19   C     C_3   0.701948 0.280359 0.163041 -0.674981
C20   C     C_3   0.197491 0.523732 0.798859 0.165956
C21   C     C_3   0.251674 0.595825 0.925530 -0.730912
C22   C     C_3   0.012267 0.382425 0.095289 0.090328
C23   C     C_R   0.491415 0.868331 0.493453 -0.030207
C24   C     C_3   0.933462 0.336149 0.974132 -0.760177
C25   C     C_3   0.034346 0.796806 0.722051 0.096699
C26   C     C_3   0.105277 0.881940 0.827012 -0.696882
C27   C     C_R   0.491555 0.125465 0.498651 -0.014247
C28   C     C_R   0.431723 0.409320 0.069840 0.300962
C29   C     C_R   0.569507 0.590950 0.931404 0.315250
C30   C     C_R   0.435977 0.404822 0.921743 0.311383
C31   C     C_R   0.570666 0.588724 0.081955 0.330723
C32   C     C_R   0.301915 0.504770 0.474654 0.876326
Cu1   Cu    Cu3+1 0.500000 0.500020 0.640660 1.108056
Cu2   Cu    Cu3+1 0.500000 0.499980 0.359340 1.097779
H1    H     H_    0.835514 0.597259 0.734060 0.247204
H2    H     H_    0.625098 0.306085 0.173958 0.245235
H3    H     H_    0.733900 0.334388 0.073622 0.263336
H4    H     H_    0.237559 0.444573 0.784363 0.172383
H5    H     H_    0.116262 0.482617 0.818630 0.146275
H6    H     H_    0.207870 0.669479 0.950144 0.269346
H7    H     H_    0.255642 0.531229 0.015726 0.205582
H8    H     H_    0.332218 0.640918 0.906447 0.236746
H9    H     H_    0.037961 0.298775 0.147951 0.145461
H10   H     H_    0.078248 0.445311 0.052374 0.175702
H11   H     H_    0.973721 0.300887 0.892763 0.192845
H12   H     H_    0.174414 0.458183 0.250645 0.205934
H13   H     H_    0.874290 0.257279 0.007802 0.236815
H14   H     H_    0.894872 0.413934 0.930063 0.275843
H15   H     H_    0.954156 0.817996 0.719751 0.149964
H16   H     H_    0.063668 0.819167 0.619037 0.148489
H17   H     H_    0.187159 0.868462 0.825718 0.265307
H18   H     H_    0.101283 0.981864 0.801062 0.205738
H19   H     H_    0.080394 0.859989 0.931917 0.255647
H20   H     H_    0.179643 0.200799 0.086013 0.372609
H21   H     H_    0.804288 0.844527 0.898546 0.364287
H22   H     H_    0.245790 0.254465 0.681109 0.327236
H23   H     H_    0.586400 0.136101 0.329419 0.157073
H24   H     H_    0.748575 0.777167 0.373243 0.345885
H25   H     H_    0.384992 0.852293 0.651405 0.174821
H26   H     H_    0.588339 0.913478 0.325727 0.210912
H27   H     H_    0.375345 0.074006 0.643232 0.221446
H28   H     H_    0.734264 0.274847 0.385500 0.076016
H29   H     H_    0.844257 0.267286 0.290675 0.147251
H30   H     H_    0.691363 0.178240 0.142148 0.208379
N1    N     N_R   0.500030 0.500030 0.852080 -0.311888
N2    N     N_R   0.499970 0.499970 0.147920 -0.330231
O1    O     O_R   0.499990 0.319660 0.618740 -0.487365
O2    O     O_3   0.202543 0.606743 0.683376 -0.558364
O3    O     O_3   0.967011 0.450695 0.186340 -0.520700
O4    O     O_3   0.034907 0.669718 0.760480 -0.550770
O5    O     O_2   0.378397 0.164500 0.138305 -0.227125
O6    O     O_2   0.316749 0.290937 0.294076 -0.290008
O7    O     O_3   0.222394 0.281043 0.057553 -0.590960
O8    O     O_2   0.677343 0.713115 0.705632 -0.306268
O9    O     O_2   0.603273 0.836131 0.856745 -0.261931
O10   O     O_3   0.776161 0.758224 0.930481 -0.459274
O11   O     O_2   0.471389 0.192174 0.831816 -0.274447
O12   O     O_R   0.500010 0.680340 0.381260 -0.541868
O13   O     O_2   0.299095 0.163135 0.897733 -0.251976
O14   O     O_3   0.321952 0.277881 0.675543 -0.557833
O15   O     O_2   0.774330 0.657616 0.159588 -0.194441
O16   O     O_2   0.674546 0.829125 0.120164 -0.272411
O17   O     O_3   0.680547 0.721549 0.349225 -0.524610
O18   O     O_R   0.499990 0.319630 0.381170 -0.551089
O19   O     O_R   0.500010 0.680370 0.618830 -0.515213
O20   O     O_R   0.349000 0.499990 0.599490 -0.542212
O21   O     O_R   0.651000 0.500010 0.400510 -0.487261
O22   O     O_R   0.348990 0.499960 0.361920 -0.547255
O23   O     O_R   0.651010 0.500040 0.638080 -0.548490
O24   O     O_3   0.804070 0.444277 0.299211 -0.473674
S1    S     S_3+6 0.339600 0.286287 0.148038 0.049581
S2    S     S_3+6 0.654807 0.723230 0.851069 0.075951
S3    S     S_3+6 0.379867 0.257647 0.834712 0.042330
S4    S     S_3+6 0.673582 0.698985 0.179477 0.093618

loop_
_geom_bond_atom_site_label_1
_geom_bond_atom_site_label_2
_ccdc_geom_bond_type
C31   N2    A    
C4    C9    A    
O16   S4    D    
Cu2   N2    S    
Cu1   N1    S    
C1    O18   A    
C12   C23   S    
C12   O19   A    
C24   H11   S    
O13   S3    D    
C30   S3    S    
C26   H18   S    
C19   H2    S    
C18   H29   S    
C32   O22   A    
C6    O4    S    
C18   C19   S    
C16   H26   S    
O8    S2    D    
Cu1   O19   S    
C25   H16   S    
C5    O3    S    
C19   H3    S    
C17   H27   S    
C22   H10   S    
C12   O12   A    
C14   C27   A    
C22   O3    S    
C5    C13   A    
C15   C23   A    
Cu2   O18   S    
C4    C7    A    
C17   C27   A    
C7    H12   S    
O7    S1    S    
C3    C8    A    
C21   H7    S    
C6    C11   A    
C5    C7    A    
O6    S1    D    
C18   H28   S    
C6    C8    A    
C25   C26   S    
O17   S4    S    
C8    H1    S    
C18   O24   S    
C2    O23   A    
C28   N2    A    
Cu1   O20   S    
Cu1   O23   S    
H20   O7    S    
C20   H4    S    
C24   H14   S    
C22   H9    S    
C19   H30   S    
C32   O20   A    
Cu1   Cu2   S    
C2    O21   A    
Cu2   O22   S    
C9    C11   A    
C4    C32   S    
O9    S2    D    
O10   S2    S    
C29   N1    A    
H21   O10   S    
C16   C23   A    
C14   C16   A    
C26   H19   S    
Cu1   O1    S    
C15   C17   A    
C14   H23   S    
C24   H13   S    
C15   H25   S    
C20   O2    S    
C10   C13   A    
C31   S4    S    
H22   O14   S    
C28   C30   A    
C2    C3    S    
C20   H5    S    
C9    O2    S    
C29   C31   A    
C3    C10   A    
C26   H17   S    
Cu2   O12   S    
O15   S4    D    
C11   C13   A    
C21   H6    S    
O11   S3    D    
C1    O1    A    
C28   S1    S    
C22   C24   S    
Cu2   O21   S    
C25   H15   S    
C30   N1    A    
C21   H8    S    
O5    S1    D    
C20   C21   S    
C10   O24   S    
C1    C27   S    
C25   O4    S    
O14   S3    S    
H24   O17   S    
C29   S2    S    
