data_str_m2_o1_o16_f0_pcu.sym.67
_audit_creation_date              2012-10-26T20:06:13-0400
_audit_creation_method            fapswitch 2.2
_symmetry_space_group_name_H-M    P1
_symmetry_Int_Tables_number       1
_space_group_crystal_system       triclinic
_cell_length_a                    9.519137
_cell_length_b                    10.777478
_cell_length_c                    13.496152
_cell_angle_alpha                 90.096926
_cell_angle_beta                  73.389978
_cell_angle_gamma                 89.900432
_cell_volume                      1326.81984911

loop_
_atom_site_label
_atom_site_type_symbol
_atom_type_description
_atom_site_fract_x
_atom_site_fract_y
_atom_site_fract_z
_atom_type_partial_charge
C1    C     C_R   0.500653 0.737447 0.498098 0.530975
C2    C     C_R   0.385737 0.454562 0.810385 -0.005940
C3    C     C_R   0.598114 0.934705 0.410499 0.006802
C4    C     C_R   0.424128 0.485895 0.698900 0.536449
C5    C     C_R   0.593611 0.065594 0.410106 0.006835
C6    C     C_R   0.501958 0.128281 0.497269 -0.054422
C7    C     C_R   0.408013 0.062751 0.580625 -0.007519
C8    C     C_R   0.406748 0.934053 0.575998 -0.098943
C9    C     C_R   0.501805 0.871086 0.493596 -0.053662
C10   C     C_R   0.897636 0.571313 0.568804 0.014797
C11   C     C_R   0.046391 0.571078 0.568934 0.018131
C12   C     C_R   0.447342 0.449059 0.975366 0.045803
C13   C     C_R   0.102379 0.428728 0.431143 0.030084
C14   C     C_R   0.953536 0.428726 0.431196 0.027308
C15   C     C_R   0.500457 0.262457 0.499223 0.502001
C16   C     C_R   0.577449 0.501457 0.300630 0.532181
C17   C     C_R   0.798962 0.551366 0.024415 0.006801
C18   C     C_R   0.620734 0.504691 0.188101 -0.023318
C19   C     C_R   0.238435 0.432977 0.863615 -0.108457
C20   C     C_R   0.196031 0.414876 0.969870 -0.071374
C21   C     C_R   0.296986 0.428226 0.026005 -0.077503
C22   C     C_2   0.674366 0.137580 0.316867 0.280990
C23   C     C_R   0.493305 0.448847 0.865808 0.032710
C24   C     C_2   0.313211 0.126918 0.673878 0.247711
C25   C     C_2   0.937081 0.615457 0.967972 0.223523
C26   C     C_2   0.701901 0.862927 0.326130 0.316725
C27   C     C_R   0.553644 0.473159 0.029199 0.035573
C28   C     C_R   0.700450 0.502950 0.972806 0.024241
C29   C     C_R   0.746451 0.476666 0.867293 -0.145158
C30   C     C_R   0.645625 0.442132 0.816441 -0.106960
C31   C     C_R   0.518408 0.470707 0.137018 -0.109320
C32   C     C_R   0.758689 0.548114 0.132473 -0.099996
Cu1   Cu    Cu3+1 0.359340 0.499980 0.500000 0.954235
Cu2   Cu    Cu3+1 0.640660 0.500020 0.500000 0.940678
H1    H     H_    0.833299 0.582114 0.173719 0.179720
H2    H     H_    0.082201 0.396505 0.009958 0.141980
H3    H     H_    0.691436 0.407164 0.739144 0.161671
H4    H     H_    0.721631 0.227143 0.324607 0.115736
H5    H     H_    0.320624 0.226224 0.683677 0.119527
H6    H     H_    0.966499 0.628097 0.884975 0.105148
H7    H     H_    0.412736 0.439725 0.183391 0.124008
H8    H     H_    0.670639 0.772858 0.303435 0.102865
H9    H     H_    0.335352 0.881464 0.638922 0.175214
H10   H     H_    0.819222 0.628516 0.623925 0.126032
H11   H     H_    0.080002 0.628051 0.624155 0.117783
H12   H     H_    0.180797 0.371479 0.376057 0.117228
H13   H     H_    0.919854 0.371553 0.376142 0.109837
H14   H     H_    0.861191 0.476874 0.823902 0.086528
H15   H     H_    0.155298 0.430487 0.823106 0.121566
H16   H     H_    0.252849 0.422567 0.108718 0.105088
N1    N     N_R   0.147940 0.499970 0.499970 -0.226036
N2    N     N_R   0.852060 0.500060 0.499990 -0.229540
O1    O     O_R   0.381250 0.680340 0.500010 -0.488252
O2    O     O_2   0.225611 0.069104 0.741872 -0.488833
O3    O     O_2   0.018464 0.659222 0.014371 -0.475429
O4    O     O_2   0.825244 0.901168 0.284276 -0.437629
O5    O     O_R   0.618820 0.680370 0.500010 -0.492234
O6    O     O_R   0.323240 0.499950 0.650980 -0.511946
O7    O     O_R   0.560810 0.499980 0.650980 -0.516378
O8    O     O_R   0.381180 0.319630 0.499990 -0.503655
O9    O     O_R   0.618750 0.319660 0.499990 -0.518115
O10   O     O_R   0.439190 0.500020 0.349020 -0.502099
O11   O     O_R   0.676760 0.500050 0.349020 -0.518529
O12   O     O_2   0.683263 0.099744 0.229949 -0.453239

loop_
_geom_bond_atom_site_label_1
_geom_bond_atom_site_label_2
_ccdc_geom_bond_type
C8    C9    A    
Cu2   O5    S    
C2    C4    S    
C32   H1    S    
C6    C7    A    
C3    C9    A    
C16   O11   A    
C1    O5    A    
Cu1   N1    S    
C29   C30   A    
C31   H7    S    
C15   O8    A    
C19   H15   S    
Cu2   N2    S    
C19   C20   A    
C8    H9    S    
C10   N2    A    
Cu1   Cu2   S    
C15   O9    A    
C17   C25   S    
C7    C8    A    
C13   N1    A    
C13   C14   A    
C27   C31   A    
C12   C23   A    
Cu1   O6    S    
C16   O10   A    
C11   H11   S    
C4    O7    A    
C28   C29   A    
C14   H13   S    
Cu1   O8    S    
C21   H16   S    
C3    C26   S    
C25   H6    S    
Cu1   O1    S    
C5    C6    A    
Cu2   O7    S    
C18   C32   A    
C10   C11   A    
C5    C22   S    
C29   H14   S    
C24   O2    D    
C7    C24   S    
C20   H2    S    
C23   C30   A    
C27   C28   A    
C24   H5    S    
C11   N1    A    
C20   C21   A    
C26   H8    S    
C16   C18   S    
C4    O6    A    
C2    C23   A    
C17   C32   A    
C1    O1    A    
C13   H12   S    
Cu2   O11   S    
C18   C31   A    
C12   C27   A    
C22   O12   D    
C6    C15   S    
C2    C19   A    
C17   C28   A    
C10   H10   S    
C12   C21   A    
Cu2   O9    S    
C14   N2    A    
C1    C9    S    
C25   O3    D    
C30   H3    S    
C26   O4    D    
Cu1   O10   S    
C3    C5    A    
C22   H4    S    
