data_str_m2_o4_o14_f0_pcu.sym.165
_audit_creation_date              2012-12-10T18:59:15-0500
_audit_creation_method            fapswitch 2.2
_symmetry_space_group_name_H-M    P1
_symmetry_Int_Tables_number       1
_space_group_crystal_system       triclinic
_cell_length_a                    10.778465
_cell_length_b                    10.810593
_cell_length_c                    9.54801
_cell_angle_alpha                 90.028456
_cell_angle_beta                  90.012743
_cell_angle_gamma                 90.029049
_cell_volume                      1112.54907781

loop_
_atom_site_label
_atom_site_type_symbol
_atom_type_description
_atom_site_fract_x
_atom_site_fract_y
_atom_site_fract_z
_atom_type_partial_charge
C1    C     C_R   0.497063 0.262306 0.499967 0.773813
C2    C     C_R   0.065718 0.394694 0.576994 0.102648
C3    C     C_R   0.128959 0.487036 0.499918 -0.098265
C4    C     C_R   0.064055 0.573523 0.420119 -0.201393
C5    C     C_R   0.936138 0.573651 0.420406 -0.204433
C6    C     C_R   0.871172 0.487251 0.500326 -0.115450
C7    C     C_R   0.478977 0.063661 0.625539 0.119530
C8    C     C_R   0.482779 0.129284 0.499754 -0.089736
C9    C     C_R   0.466219 0.064450 0.373352 -0.224219
C10   C     C_R   0.465423 0.935451 0.373488 -0.223353
C11   C     C_R   0.482255 0.870699 0.499754 -0.095499
C12   C     C_R   0.262624 0.495734 0.500027 0.782805
C13   C     C_R   0.478992 0.936459 0.625421 0.139626
C14   C     C_3   0.561461 0.929550 0.750739 -0.485553
C15   C     C_3   0.561494 0.070043 0.751096 -0.476900
C16   C     C_R   0.565173 0.587720 0.073940 0.173331
C17   C     C_R   0.426853 0.420968 0.074332 -0.078612
C18   C     C_R   0.426679 0.421102 0.925493 -0.063096
C19   C     C_R   0.566141 0.586922 0.926176 0.166564
C20   C     C_3   0.702951 0.608126 0.918113 -0.550882
C21   C     C_3   0.702739 0.608251 0.077968 0.311418
C22   C     C_R   0.496818 0.737684 0.499960 0.814260
C23   C     C_R   0.737419 0.495813 0.500081 0.802072
C24   C     C_R   0.129589 0.299853 0.649254 -0.187577
C25   C     C_R   0.064731 0.209111 0.722699 -0.135159
C26   C     C_R   0.935711 0.209616 0.723701 -0.139765
C27   C     C_R   0.870748 0.300736 0.650968 -0.195534
C28   C     C_R   0.934493 0.394971 0.577520 0.099891
Cu1   Cu    Cu3+1 0.499990 0.499980 0.640670 0.937076
Cu2   Cu    Cu3+1 0.500010 0.500020 0.359330 0.953614
H1    H     H_    0.112844 0.643258 0.359905 0.156537
H2    H     H_    0.653736 0.888785 0.726630 0.193760
H3    H     H_    0.513462 0.110427 0.843445 0.192879
H4    H     H_    0.653780 0.110606 0.727275 0.192609
H5    H     H_    0.369548 0.355234 0.130099 0.139548
H6    H     H_    0.369212 0.355499 0.869653 0.131963
H7    H     H_    0.753298 0.527187 0.874271 0.195911
H8    H     H_    0.726204 0.696804 0.866336 0.195004
H9    H     H_    0.752397 0.526506 0.120926 0.122517
H10   H     H_    0.229600 0.293026 0.647683 0.138319
H11   H     H_    0.114841 0.137170 0.777580 0.131346
H12   H     H_    0.885770 0.138071 0.779525 0.128460
H13   H     H_    0.770733 0.294867 0.650972 0.144543
H14   H     H_    0.887468 0.643616 0.360687 0.197804
H15   H     H_    0.460112 0.112556 0.274100 0.159101
H16   H     H_    0.457926 0.887183 0.274536 0.161052
H17   H     H_    0.512941 0.888848 0.842441 0.192256
N1    N     N_R   0.500790 0.500930 0.147930 -0.208609
N2    N     N_R   0.500790 0.500890 0.852020 -0.172742
O1    O     O_R   0.500000 0.319640 0.618810 -0.595406
O2    O     O_R   0.500010 0.319680 0.381230 -0.588914
O3    O     O_R   0.319640 0.499980 0.618820 -0.582289
O4    O     O_R   0.319650 0.500020 0.381230 -0.579260
O5    O     O_R   0.499990 0.680320 0.618770 -0.573669
O6    O     O_R   0.500000 0.680360 0.381190 -0.566695
O7    O     O_R   0.680350 0.499980 0.618770 -0.585773
O8    O     O_R   0.680360 0.500020 0.381180 -0.570835
O9    O     O_3   0.742199 0.718652 0.147007 -0.563929
C29   C     C_3   0.687293 0.829053 0.096977 -0.276927
H18   H     H_    0.586676 0.820189 0.074796 0.133851
H19   H     H_    0.737719 0.863662 0.003617 0.161014
H20   H     H_    0.696980 0.900835 0.179298 0.185357

loop_
_geom_bond_atom_site_label_1
_geom_bond_atom_site_label_2
_ccdc_geom_bond_type
C10   H16   S    
Cu2   O2    S    
C15   H4    S    
C9    H15   S    
C16   C21   S    
Cu1   O7    S    
C1    C8    S    
C20   H8    S    
C9    C10   A    
C19   N2    A    
C11   C22   S    
C12   O4    A    
C21   H9    S    
C17   N1    A    
C7    C13   A    
Cu1   O5    S    
C21   O9    S    
C16   N1    A    
C7    C15   S    
C17   C18   A    
O9    C29   S    
C22   O6    A    
C23   O7    A    
C22   O5    A    
Cu1   N2    S    
C13   C14   S    
C20   C21   S    
C20   H7    S    
C1    O2    A    
C26   C27   A    
C14   H17   S    
C16   C19   A    
C6    C23   S    
Cu2   N1    S    
C12   O3    A    
C5    H14   S    
C2    C3    A    
Cu1   O1    S    
C2    C24   A    
C5    C6    A    
Cu2   O4    S    
C29   H19   S    
C11   C13   A    
C7    C8    A    
C10   C11   A    
Cu1   Cu2   S    
C3    C4    A    
C4    H1    S    
Cu2   O8    S    
C27   H13   S    
C29   H18   S    
C24   C25   A    
C26   H12   S    
C1    O1    A    
C25   H11   S    
C27   C28   A    
C23   O8    A    
C14   C15   S    
C4    C5    A    
C29   H20   S    
C2    C28   A    
C3    C12   S    
C17   H5    S    
C24   H10   S    
C25   C26   A    
C18   H6    S    
Cu2   O6    S    
C15   H3    S    
C6    C28   A    
C19   C20   S    
C18   N2    A    
C14   H2    S    
C8    C9    A    
Cu1   O3    S    
