data_str_m2_o1_o18_f0_pcu.sym.95
_audit_creation_date              2013-03-05T16:04:39-0500
_audit_creation_method            fapswitch 2.2
_symmetry_space_group_name_H-M    P1
_symmetry_Int_Tables_number       1
_space_group_crystal_system       triclinic
_cell_length_a                    9.669481
_cell_length_b                    10.81667
_cell_length_c                    15.495334
_cell_angle_alpha                 89.336821
_cell_angle_beta                  70.194562
_cell_angle_gamma                 88.897555
_cell_volume                      1524.51171434

loop_
_atom_site_label
_atom_site_type_symbol
_atom_site_description
_atom_site_fract_x
_atom_site_fract_y
_atom_site_fract_z
_atom_type_partial_charge
O1    O     O_R   0.118740 0.319660 0.500000 -0.521860
O2    O     O_R   0.881260 0.680340 0.500000 -0.569621
O3    O     O_R   0.881170 0.319630 0.500010 -0.592700
O4    O     O_R   0.118830 0.680370 0.499990 -0.599380
C1    C     C_R   0.001142 0.262637 0.500127 0.826181
C2    C     C_R   0.997945 0.737301 0.501819 0.817550
O5    O     O_R   0.055570 0.500030 0.629830 -0.526717
O6    O     O_R   0.944430 0.499970 0.370170 -0.558857
O7    O     O_R   0.818000 0.500000 0.629840 -0.586652
O8    O     O_R   0.182000 0.500000 0.370160 -0.585463
C3    C     C_R   0.913084 0.497498 0.673015 0.801843
C4    C     C_R   0.087414 0.497308 0.326932 0.813334
Cu1   Cu    Cu3+1 0.140660 0.500020 0.500000 1.000491
Cu2   Cu    Cu3+1 0.859340 0.499980 0.500000 0.974885
C5    C     C_R   0.856471 0.479567 0.773584 -0.084699
C6    C     C_R   0.147411 0.478195 0.226514 -0.051218
C7    C     C_R   0.881294 0.494106 0.923212 -0.229874
C8    C     C_R   0.136195 0.503390 0.073736 -0.244351
C9    C     C_R   0.927854 0.528657 0.830280 0.181073
C10   C     C_R   0.085563 0.536112 0.166754 0.169700
C11   C     C_R   0.727339 0.412359 0.813451 -0.209319
C12   C     C_R   0.275409 0.405120 0.189594 -0.224892
C13   C     C_R   0.677601 0.380356 0.907641 0.092129
C14   C     C_R   0.333778 0.378522 0.094790 0.081719
C15   C     C_R   0.763880 0.413377 0.960997 0.017885
C16   C     C_R   0.251934 0.417067 0.038497 0.030495
C17   C     C_R   0.535348 0.332800 0.953558 -0.097340
C18   C     C_R   0.480532 0.334219 0.050612 -0.106937
C19   C     C_R   0.583723 0.322468 0.096121 0.361802
C20   C     C_R   0.433992 0.315841 0.908308 0.354467
C21   C     C_R   0.724903 0.368923 0.052455 0.038088
C22   C     C_R   0.295641 0.373446 0.946763 0.036062
H1    H     H_    0.329342 0.372891 0.236105 0.209342
H2    H     H_    0.665377 0.388203 0.770074 0.185649
H3    H     H_    0.932654 0.535086 0.966680 0.118003
H4    H     H_    0.091916 0.552822 0.028537 0.124224
C23   C     C_R   0.869487 0.067846 0.543429 -0.235924
C24   C     C_R   0.129302 0.932129 0.463662 -0.267366
H5    H     H_    0.768670 0.120112 0.575887 0.177110
H6    H     H_    0.230520 0.880173 0.431688 0.161476
C25   C     C_R   0.865365 0.939380 0.545555 0.148288
C26   C     C_R   0.133862 0.060303 0.462870 0.144737
C27   C     C_R   0.996012 0.871358 0.503537 -0.040387
C28   C     C_R   0.002495 0.128541 0.501797 -0.040524
C29   C     C_R   0.548689 0.415799 0.550702 -0.083190
C30   C     C_R   0.449970 0.583597 0.449470 -0.013047
H7    H     H_    0.583119 0.348474 0.591854 0.154004
H8    H     H_    0.414034 0.651809 0.409598 0.143003
C31   C     C_R   0.400080 0.416073 0.551377 0.281969
C32   C     C_R   0.595906 0.586411 0.450631 0.269868
N1    N     N_R   0.352080 0.500030 0.499980 -0.174351
N2    N     N_R   0.647920 0.499970 0.500020 -0.180736
N3    N     N_3   0.826690 0.367841 0.101085 -0.506243
H9    H     H_    0.849521 0.459024 0.110419 0.213752
H10   H     H_    0.922644 0.321344 0.062065 0.231336
N4    N     N_3   0.204812 0.389499 0.891541 -0.526100
H11   H     H_    0.191528 0.483902 0.882477 0.221827
H12   H     H_    0.104034 0.348488 0.925145 0.239072
N5    N     N_3   0.981766 0.635977 0.198767 -0.610106
H13   H     H_    0.884571 0.615539 0.187266 0.224558
H14   H     H_    0.025381 0.714923 0.160373 0.230938
N6    N     N_3   0.043255 0.616682 0.794061 -0.564280
H15   H     H_    0.999190 0.691877 0.768491 0.216738
H16   H     H_    0.074984 0.652670 0.846698 0.206010
N7    N     N_R   0.549755 0.254545 0.180816 0.122389
O9    O     O_R   0.599107 0.288547 0.245139 -0.336957
O10   O     O_R   0.468055 0.157253 0.193642 -0.385497
N8    N     N_R   0.470359 0.237331 0.828484 0.114574
O11   O     O_R   0.377625 0.221105 0.785555 -0.371484
O12   O     O_R   0.586080 0.165021 0.808083 -0.381801
N9    N     N_3   0.730071 0.878913 0.593457 -0.575106
H17   H     H_    0.650653 0.910802 0.566199 0.219652
H18   H     H_    0.696144 0.906171 0.662114 0.250704
N10   N     N_3   0.271281 0.120295 0.420247 -0.528228
H19   H     H_    0.343192 0.091770 0.454281 0.225380
H20   H     H_    0.314778 0.088962 0.352792 0.276100
N11   N     N_3   0.299023 0.329037 0.607488 -0.501375
H21   H     H_    0.345207 0.240393 0.591857 0.214794
H22   H     H_    0.286106 0.347714 0.675762 0.260126
N12   N     N_3   0.682009 0.687647 0.402872 -0.605557
H23   H     H_    0.785606 0.657851 0.361828 0.286086
H24   H     H_    0.688662 0.752462 0.450404 0.248728

loop_
_geom_bond_atom_site_label_1
_geom_bond_atom_site_label_2
_geom_bond_distance
_ccdc_geom_bond_type
C15   C21   1.418059 A    
C20   C22   1.403326 A    
C16   C22   1.422157 A    
N3    H10   1.043229 S    
C8    C16   1.407111 A    
N11   H21   1.045502 S    
C5    C9    1.402136 A    
N10   H20   1.043596 S    
O1    C1    1.303425 A    
C18   C19   1.406723 A    
C14   C16   1.416927 A    
C24   C26   1.387747 A    
C9    N6    1.439036 S    
N4    H11   1.040561 S    
O4    Cu1   1.958136 S    
N6    H16   1.045181 S    
Cu1   N1    2.044217 S    
C3    C5    1.478084 S    
Cu2   N2    2.044218 S    
C4    C6    1.480402 S    
N4    H12   1.041613 S    
N8    O11   1.300123 A    
N7    O10   1.300710 A    
C32   N2    1.392493 A    
C13   C17   1.420715 A    
C6    C10   1.398229 A    
C25   N9    1.433123 S    
N11   H22   1.044065 S    
N5    H13   1.042267 S    
Cu1   Cu2   2.720228 S    
C17   C20   1.400492 A    
C25   C27   1.406806 A    
O2    C2    1.304654 A    
C26   C28   1.406122 A    
C29   H7    1.082384 S    
C30   H8    1.082544 S    
N5    H14   1.045503 S    
C26   N10   1.432296 S    
N10   H19   1.045614 S    
O4    C2    1.302532 A    
N9    H18   1.045645 S    
C11   H2    1.077957 S    
O6    Cu2   1.898016 S    
C29   N2    1.368485 A    
C31   N1    1.375477 A    
N3    H9    1.037182 S    
C30   N1    1.356505 A    
O5    C3    1.312644 A    
O7    Cu2   1.913792 S    
N6    H15   1.045797 S    
C29   C31   1.433411 A    
O6    C4    1.316217 A    
C21   N3    1.427795 S    
C10   N5    1.433020 S    
O7    C3    1.307324 A    
O3    Cu2   1.958135 S    
O8    C4    1.304854 A    
C19   N7    1.436965 S    
N12   H24   1.041118 S    
C1    C28   1.450297 S    
C2    C27   1.450252 S    
C11   C13   1.414329 A    
C12   C14   1.414570 A    
O1    Cu1   1.966425 S    
C12   H1    1.074612 S    
C6    C12   1.406019 A    
C14   C18   1.426557 A    
N12   H23   1.035580 S    
O3    C1    1.303711 A    
O8    Cu1   1.913794 S    
C32   N12   1.427846 S    
C30   C32   1.418242 A    
C7    C15   1.403624 A    
C23   C28   1.400614 A    
C24   C27   1.399476 A    
C23   H5    1.084445 S    
C24   H6    1.084383 S    
C5    C11   1.403937 A    
C7    C9    1.403807 A    
C31   N11   1.427527 S    
C8    C10   1.403343 A    
C13   C15   1.411682 A    
C23   C25   1.390608 A    
O2    Cu2   1.966425 S    
O5    Cu1   1.898016 S    
N9    H17   1.045621 S    
C19   C21   1.402325 A    
N7    O9    1.301528 A    
C17   C18   1.415235 A    
N8    O12   1.302343 A    
C7    H3    1.067181 S    
C8    H4    1.070267 S    
C22   N4    1.426062 S    
C20   N8    1.446655 S    
