data_str_m2_o1_o4_f0_pcu.sym.169
_audit_creation_date              2012-12-10T18:04:00-0500
_audit_creation_method            fapswitch 2.2
_symmetry_space_group_name_H-M    P1
_symmetry_Int_Tables_number       1
_space_group_crystal_system       triclinic
_cell_length_a                    10.831212
_cell_length_b                    9.515492
_cell_length_c                    10.841892
_cell_angle_alpha                 89.83713
_cell_angle_beta                  90.135445
_cell_angle_gamma                 89.986692
_cell_volume                      1117.40446167

loop_
_atom_site_label
_atom_site_type_symbol
_atom_type_description
_atom_site_fract_x
_atom_site_fract_y
_atom_site_fract_z
_atom_type_partial_charge
C1    C     C_R   0.262054 0.499975 0.499953 0.789340
C2    C     C_R   0.737944 0.499956 0.500242 0.794384
C3    C     C_R   0.406396 0.074648 0.445344 -0.042130
C4    C     C_R   0.593174 0.074124 0.555558 -0.048279
C5    C     C_R   0.406548 0.925860 0.444951 -0.019145
C6    C     C_R   0.593251 0.925370 0.555239 -0.029421
C7    C     C_R   0.497818 0.500018 0.262272 0.811744
C8    C     C_R   0.500812 0.499695 0.737698 0.824844
C9    C     C_R   0.451651 0.616250 0.062181 0.069200
C10   C     C_R   0.458775 0.616944 0.935856 0.006038
C11   C     C_R   0.488306 0.497708 0.129180 -0.117809
C12   C     C_R   0.493879 0.497457 0.870734 -0.047427
C13   C     C_R   0.510687 0.371901 0.064851 -0.214191
C14   C     C_R   0.512081 0.371403 0.936270 -0.213764
C15   C     C_3   0.499944 0.766722 0.930579 0.198203
C16   C     C_3   0.484029 0.768578 0.071366 0.194273
C17   C     C_R   0.063875 0.372345 0.496709 -0.184322
C18   C     C_R   0.936162 0.372331 0.496953 -0.186724
C19   C     C_R   0.871781 0.499976 0.500492 -0.013595
C20   C     C_R   0.128215 0.500003 0.500105 -0.013952
C21   C     C_R   0.936114 0.627641 0.504095 -0.179157
C22   C     C_R   0.063837 0.627653 0.503816 -0.177536
Cu1   Cu    Cu3+1 0.500000 0.640660 0.500000 0.962263
Cu2   Cu    Cu3+1 0.500000 0.359340 0.500000 0.935565
H1    H     H_    0.533240 0.275582 0.113314 0.154306
H2    H     H_    0.533775 0.274317 0.889046 0.148062
H3    H     H_    0.434779 0.833428 0.876292 0.103079
H4    H     H_    0.568938 0.787983 0.127122 0.106496
H5    H     H_    0.111925 0.272555 0.493712 0.143667
H6    H     H_    0.888140 0.272532 0.494162 0.144294
H7    H     H_    0.888052 0.727424 0.507172 0.141179
H8    H     H_    0.111870 0.727445 0.506625 0.144205
H9    H     H_    0.331451 0.130922 0.401653 0.124480
H10   H     H_    0.667629 0.129661 0.600747 0.121125
H11   H     H_    0.331981 0.870234 0.400065 0.144497
H12   H     H_    0.667853 0.869155 0.599420 0.136478
N1    N     N_R   0.500000 0.852070 0.500000 -0.161720
N2    N     N_R   0.500000 0.147940 0.500000 -0.154662
O1    O     O_R   0.319640 0.618740 0.499990 -0.594563
O2    O     O_R   0.680360 0.618740 0.500010 -0.592443
O3    O     O_R   0.319620 0.381170 0.499990 -0.594382
O4    O     O_R   0.680380 0.381170 0.500010 -0.595035
O5    O     O_R   0.499990 0.618810 0.319660 -0.571073
O6    O     O_R   0.500010 0.618810 0.680340 -0.558349
O7    O     O_R   0.499960 0.381240 0.319650 -0.587577
O8    O     O_R   0.500040 0.381240 0.680350 -0.593964
O9    O     O_3   0.625170 0.775005 0.894599 -0.565777
C23   C     C_3   0.662436 0.917034 0.890392 0.053643
H13   H     H_    0.653113 0.967390 0.982368 0.118984
H14   H     H_    0.607102 0.976832 0.821361 0.131127
C24   C     C_3   0.797869 0.924511 0.854066 -0.779419
H15   H     H_    0.812939 0.871078 0.764510 0.237311
H16   H     H_    0.826761 0.036078 0.845487 0.193242
H17   H     H_    0.855594 0.872442 0.925622 0.253198
O10   O     O_3   0.378520 0.844907 0.108161 -0.573590
C25   C     C_3   0.406288 0.989532 0.114089 0.046362
H18   H     H_    0.446098 0.028834 0.026040 0.115486
H19   H     H_    0.472123 0.010463 0.190743 0.147009
C26   C     C_3   0.287510 0.070791 0.136719 -0.771168
H20   H     H_    0.238989 0.028109 0.218725 0.233101
H21   H     H_    0.308570 0.183512 0.152390 0.207824
H22   H     H_    0.225618 0.061517 0.055330 0.246167

loop_
_geom_bond_atom_site_label_1
_geom_bond_atom_site_label_2
_ccdc_geom_bond_type
C16   H4    S    
Cu2   N2    S    
Cu1   Cu2   S    
C18   H6    S    
C7    O5    A    
C25   H19   S    
C17   H5    S    
C9    C10   A    
C5    H11   S    
C15   H3    S    
O9    C23   S    
C25   C26   S    
C15   O9    S    
C8    C12   S    
C24   H17   S    
Cu2   O8    S    
O10   C25   S    
C23   H14   S    
C17   C18   A    
C12   C14   A    
C6    N1    A    
Cu1   O5    S    
C26   H20   S    
C7    O7    A    
C21   C22   A    
C14   H2    S    
C7    C11   S    
Cu2   O3    S    
C21   H7    S    
C13   H1    S    
C22   H8    S    
C2    O4    A    
Cu1   O1    S    
Cu2   O7    S    
C10   C12   A    
C1    O3    A    
C23   H13   S    
C19   C21   A    
C9    C16   S    
C20   C22   A    
C8    O8    A    
C10   C15   S    
C9    C11   A    
C8    O6    A    
C4    H10   S    
C16   O10   S    
C26   H21   S    
C15   C16   S    
C3    H9    S    
C24   H16   S    
Cu1   O2    S    
C2    O2    A    
C11   C13   A    
C17   C20   A    
Cu2   O4    S    
C25   H18   S    
C4    C6    A    
C18   C19   A    
C4    N2    A    
C1    O1    A    
C5    N1    A    
C1    C20   S    
C13   C14   A    
C3    C5    A    
C2    C19   S    
Cu1   N1    S    
C23   C24   S    
Cu1   O6    S    
C24   H15   S    
C3    N2    A    
C6    H12   S    
C26   H22   S    
