data_str_m2_o1_o13_f0_pcu.sym.123
_audit_creation_date              2012-12-10T17:56:17-0500
_audit_creation_method            fapswitch 2.2
_symmetry_space_group_name_H-M    P1
_symmetry_Int_Tables_number       1
_space_group_crystal_system       triclinic
_cell_length_a                    13.035762
_cell_length_b                    10.921272
_cell_length_c                    9.556981
_cell_angle_alpha                 92.821373
_cell_angle_beta                  99.032278
_cell_angle_gamma                 88.440572
_cell_volume                      1341.83761867

loop_
_atom_site_label
_atom_site_type_symbol
_atom_type_description
_atom_site_fract_x
_atom_site_fract_y
_atom_site_fract_z
_atom_type_partial_charge
C1    C     C_R   0.500733 0.262078 0.496650 0.787818
C2    C     C_R   0.499250 0.737926 0.503347 0.787728
C3    C     C_R   0.501183 0.871943 0.508718 -0.089691
C4    C     C_R   0.498740 0.128071 0.491258 -0.089616
C5    C     C_R   0.435153 0.426400 0.056258 0.005294
C6    C     C_R   0.564862 0.573580 0.943745 0.005511
C7    C     C_R   0.435018 0.426534 0.907695 -0.011409
C8    C     C_R   0.565003 0.573437 0.092309 -0.011066
C9    C     C_R   0.299633 0.499859 0.470007 0.793036
C10   C     C_R   0.700367 0.500162 0.529991 0.793060
C11   C     C_R   0.815116 0.499293 0.551293 -0.106565
C12   C     C_R   0.184885 0.500780 0.448702 -0.106553
C13   C     C_R   0.013858 0.562974 0.328788 -0.247818
C14   C     C_R   0.986154 0.437152 0.671206 -0.247773
C15   C     C_R   0.120793 0.548006 0.328422 -0.011624
C16   C     C_R   0.879219 0.452084 0.671571 -0.011618
C17   C     C_R   0.137872 0.460635 0.560036 -0.290376
C18   C     C_R   0.862124 0.539467 0.439960 -0.290360
C19   C     C_R   0.031077 0.473535 0.557647 0.153176
C20   C     C_R   0.968926 0.526589 0.442346 0.153142
C21   C     C_R   0.536559 0.052439 0.385709 -0.002528
C22   C     C_R   0.463397 0.947580 0.614301 -0.002461
C23   C     C_R   0.538127 0.925975 0.397332 -0.243600
C24   C     C_R   0.461762 0.074044 0.602623 -0.243371
Cu1   Cu    Cu3+1 0.500000 0.500020 0.640660 0.951216
Cu2   Cu    Cu3+1 0.500000 0.499980 0.359340 0.951255
H1    H     H_    0.815029 0.580106 0.349838 0.143704
H2    H     H_    0.184960 0.419986 0.650159 0.143716
H3    H     H_    0.965111 0.600813 0.238068 0.143981
H4    H     H_    0.034911 0.399326 0.761926 0.143987
H5    H     H_    0.568626 0.868703 0.317032 0.148583
H6    H     H_    0.431317 0.131322 0.682977 0.148500
N1    N     N_R   0.500030 0.500030 0.852080 -0.153688
N2    N     N_R   0.499970 0.499970 0.147920 -0.153670
O1    O     O_R   0.499990 0.319660 0.618740 -0.589013
O2    O     O_R   0.500010 0.680340 0.381260 -0.588987
O3    O     O_R   0.499990 0.319630 0.381170 -0.580898
O4    O     O_R   0.500010 0.680370 0.618830 -0.580870
O5    O     O_R   0.349000 0.499990 0.599490 -0.583356
O6    O     O_R   0.651000 0.500010 0.400510 -0.583326
O7    O     O_R   0.348990 0.499960 0.361920 -0.578991
O8    O     O_R   0.651010 0.500040 0.638080 -0.579025
C25   C     C_R   0.843021 0.426212 0.805152 0.158860
C26   C     C_R   0.861978 0.309802 0.861166 -0.182790
C27   C     C_R   0.853900 0.292637 0.002671 -0.139742
C28   C     C_R   0.823513 0.389935 0.088051 -0.064411
C29   C     C_R   0.805208 0.506034 0.033149 -0.173804
C30   C     C_R   0.815480 0.524506 0.892583 -0.102045
H7    H     H_    0.888944 0.234346 0.797612 0.118283
H8    H     H_    0.875095 0.205068 0.047356 0.118142
H9    H     H_    0.816926 0.375862 0.197475 0.145784
H10   H     H_    0.785802 0.582909 0.100181 0.096666
H11   H     H_    0.806330 0.616310 0.853699 0.106390
C31   C     C_R   0.157012 0.573830 0.194838 0.158810
C32   C     C_R   0.184496 0.475501 0.107412 -0.102033
C33   C     C_R   0.194851 0.493959 0.966873 -0.173791
C34   C     C_R   0.176708 0.610086 0.911999 -0.064494
C35   C     C_R   0.146385 0.707428 0.997373 -0.139533
C36   C     C_R   0.138194 0.690266 0.138845 -0.182602
H12   H     H_    0.193549 0.383688 0.146281 0.106407
H13   H     H_    0.214214 0.417059 0.899843 0.096680
H14   H     H_    0.183369 0.624151 0.802598 0.145751
H15   H     H_    0.125306 0.795022 0.952683 0.118127
H16   H     H_    0.111273 0.765755 0.202392 0.118257
C37   C     C_R   0.572488 0.096384 0.258552 0.136633
C38   C     C_R   0.499376 0.137205 0.146063 -0.099124
C39   C     C_R   0.528103 0.150385 0.012863 -0.114613
C40   C     C_R   0.629181 0.120863 0.990064 -0.083041
C41   C     C_R   0.701635 0.077273 0.100773 -0.169794
C42   C     C_R   0.674193 0.067115 0.235045 -0.181219
H17   H     H_    0.418963 0.152267 0.159503 0.105675
H18   H     H_    0.470532 0.177880 0.925779 0.111311
H19   H     H_    0.650235 0.127772 0.885617 0.136584
H20   H     H_    0.777951 0.046791 0.081651 0.115160
H21   H     H_    0.730187 0.029076 0.318418 0.123201
C43   C     C_R   0.427860 0.903665 0.741772 0.136789
C44   C     C_R   0.326274 0.932944 0.765889 -0.181338
C45   C     C_R   0.299278 0.922824 0.900454 -0.169562
C46   C     C_R   0.372058 0.879260 0.010851 -0.082775
C47   C     C_R   0.473035 0.849802 0.987457 -0.114901
C48   C     C_R   0.501312 0.862929 0.853965 -0.099287
H22   H     H_    0.270035 0.970966 0.682757 0.123112
H23   H     H_    0.223070 0.953350 0.920055 0.115109
H24   H     H_    0.351358 0.872383 0.115522 0.136668
H25   H     H_    0.530893 0.822399 0.074280 0.110990
H26   H     H_    0.581650 0.847880 0.840057 0.105674
H27   H     H_    0.383532 0.366819 0.097660 0.100364
H28   H     H_    0.616490 0.633152 0.902345 0.100365
H29   H     H_    0.383163 0.366991 0.837465 0.099863
H30   H     H_    0.616884 0.632945 0.162549 0.099786

loop_
_geom_bond_atom_site_label_1
_geom_bond_atom_site_label_2
_ccdc_geom_bond_type
C26   H7    S    
C32   C33   A    
C11   C18   A    
C10   O8    A    
C3    C23   A    
C19   C20   A    
C22   C43   S    
C34   H14   S    
C44   C45   A    
C36   H16   S    
C27   H8    S    
C13   H3    S    
C46   H24   S    
C4    C24   A    
C37   C42   A    
C7    H29   S    
C9    O5    A    
C6    H28   S    
C33   C34   A    
C10   O6    A    
C39   H18   S    
C31   C32   A    
C45   H23   S    
Cu2   N2    S    
C29   C30   A    
C40   C41   A    
C12   C17   A    
C25   C30   A    
C18   C20   A    
C48   H26   S    
C1    O3    A    
C40   H19   S    
C38   C39   A    
C32   H12   S    
C7    N1    A    
C14   H4    S    
C31   C36   A    
C30   H11   S    
C39   C40   A    
C15   C31   S    
C43   C44   A    
C5    C7    A    
C45   C46   A    
C6    C8    A    
C35   C36   A    
C27   C28   A    
C28   H9    S    
C23   H5    S    
C43   C48   A    
C25   C26   A    
C24   H6    S    
C47   H25   S    
Cu1   O4    S    
C11   C16   A    
C2    O4    A    
C38   H17   S    
C12   C15   A    
C5    N2    A    
C41   H20   S    
C8    N2    A    
C16   C25   S    
Cu1   O1    S    
Cu2   O2    S    
C21   C23   A    
C22   C24   A    
C8    H30   S    
C26   C27   A    
C1    O1    A    
C2    O2    A    
C35   H15   S    
C28   C29   A    
C13   C20   A    
C21   C37   S    
C17   H2    S    
C14   C19   A    
C18   H1    S    
C47   C48   A    
Cu1   O8    S    
Cu2   O3    S    
C29   H10   S    
C9    O7    A    
C6    N1    A    
C1    C4    S    
C13   C15   A    
C2    C3    S    
Cu1   Cu2   S    
Cu1   O5    S    
C4    C21   A    
Cu2   O6    S    
C34   C35   A    
C44   H22   S    
C17   C19   A    
C14   C16   A    
C41   C42   A    
C9    C12   S    
C10   C11   S    
C46   C47   A    
C5    H27   S    
C37   C38   A    
C42   H21   S    
C33   H13   S    
C3    C22   A    
Cu2   O7    S    
Cu1   N1    S    
