data_str_m2_o4_o10_f0_pcu.sym.185
_audit_creation_date              2012-12-10T18:57:11-0500
_audit_creation_method            fapswitch 2.2
_symmetry_space_group_name_H-M    P1
_symmetry_Int_Tables_number       1
_space_group_crystal_system       triclinic
_cell_length_a                    8.731498
_cell_length_b                    10.846043
_cell_length_c                    9.560432
_cell_angle_alpha                 89.323313
_cell_angle_beta                  97.597458
_cell_angle_gamma                 90.439665
_cell_volume                      897.366232024

loop_
_atom_site_label
_atom_site_type_symbol
_atom_type_description
_atom_site_fract_x
_atom_site_fract_y
_atom_site_fract_z
_atom_type_partial_charge
C1    C     C_R   0.502648 0.262614 0.501032 0.826764
C2    C     C_R   0.553319 0.939799 0.380942 0.143577
C3    C     C_R   0.518570 0.871579 0.500240 -0.105904
C4    C     C_R   0.505236 0.935110 0.624479 -0.020151
C5    C     C_3   0.383287 0.926397 0.720573 -0.154208
C6    C     C_3   0.384020 0.066795 0.722754 -0.527778
C7    C     C_R   0.635411 0.508625 0.089635 0.290434
C8    C     C_R   0.367726 0.480012 0.058430 -0.046722
C9    C     C_R   0.367744 0.479899 0.910116 -0.018880
C10   C     C_R   0.635350 0.508192 0.942376 0.248869
C11   C     C_3   0.750761 0.610327 0.947466 -0.485714
C12   C     C_R   0.204501 0.491802 0.464470 0.785861
C13   C     C_3   0.749669 0.612252 0.105898 -0.489631
C14   C     C_R   0.503444 0.737839 0.499531 0.813453
C15   C     C_R   0.795787 0.495542 0.535554 0.914452
C16   C     C_2   0.041707 0.463309 0.448008 -0.176520
C17   C     C_2   0.961637 0.496956 0.552427 -0.377978
C18   C     C_R   0.505067 0.062177 0.626199 0.098553
C19   C     C_R   0.518356 0.130125 0.503885 -0.095670
C20   C     C_R   0.553477 0.068583 0.384165 -0.232408
Cu1   Cu    Cu3+1 0.499990 0.499980 0.640670 0.961022
Cu2   Cu    Cu3+1 0.500010 0.500020 0.359330 0.984673
H1    H     H_    0.259871 0.464905 0.843052 0.134690
H2    H     H_    0.862714 0.579270 0.917064 0.192469
H3    H     H_    0.703375 0.695296 0.892419 0.217412
H4    H     H_    0.700062 0.697699 0.142487 0.236788
H5    H     H_    0.862052 0.585193 0.165961 0.187284
H6    H     H_    0.018633 0.540014 0.647761 0.146947
H7    H     H_    0.574408 0.119650 0.290338 0.181413
H8    H     H_    0.272877 0.885893 0.668803 0.171504
H9    H     H_    0.274289 0.107851 0.670987 0.198154
H10   H     H_    0.429249 0.107778 0.826313 0.191109
H11   H     H_    0.259836 0.465098 0.099768 0.127125
N1    N     N_R   0.500980 0.500930 0.148050 -0.183515
N2    N     N_R   0.500990 0.500890 0.852140 -0.179804
O1    O     O_R   0.500000 0.319640 0.618810 -0.586303
O2    O     O_R   0.500020 0.319680 0.381230 -0.576562
O3    O     O_R   0.274830 0.499980 0.591380 -0.581241
O4    O     O_R   0.274850 0.500020 0.353800 -0.608811
O5    O     O_R   0.499980 0.680320 0.618770 -0.576264
O6    O     O_R   0.500000 0.680360 0.381190 -0.538119
O7    O     O_R   0.725150 0.499980 0.646200 -0.603962
O8    O     O_R   0.725170 0.500020 0.408620 -0.547385
C21   C     C_2   0.979390 0.384995 0.326023 0.368790
H12   H     H_    0.029700 0.391139 0.228283 0.052504
O9    O     O_2   0.878877 0.307713 0.336294 -0.544686
N3    N     N_3   0.581767 0.880336 0.254292 -0.570301
H13   H     H_    0.497762 0.909668 0.172838 0.233918
H14   H     H_    0.689395 0.910310 0.230042 0.206721
C22   C     C_2   0.442816 0.868556 0.860533 0.415519
H15   H     H_    0.552489 0.898165 0.917616 0.047958
O10   O     O_2   0.368265 0.787684 0.910857 -0.549445

loop_
_geom_bond_atom_site_label_1
_geom_bond_atom_site_label_2
_ccdc_geom_bond_type
C8    C9    A    
C7    C10   A    
C6    H10   S    
C10   N2    A    
Cu1   N2    S    
C2    N3    S    
C16   C21   S    
C22   O10   D    
C19   C20   A    
C1    O2    A    
C20   H7    S    
C4    C18   A    
C17   H6    S    
C12   O4    A    
C2    C3    A    
C15   O8    A    
N3    H14   S    
Cu1   O1    S    
C8    N1    A    
Cu1   Cu2   S    
C11   C13   S    
C3    C14   S    
C14   O6    A    
C6    C18   S    
Cu2   O4    S    
C21   O9    D    
C6    H9    S    
C8    H11   S    
C12   O3    A    
C5    C6    S    
Cu2   N1    S    
C7    N1    A    
C5    C22   S    
C1    C19   S    
Cu2   O6    S    
C10   C11   S    
C13   H4    S    
C14   O5    A    
C3    C4    A    
N3    H13   S    
C11   H2    S    
C7    C13   S    
C21   H12   S    
C15   O7    A    
C15   C17   S    
C18   C19   A    
C5    H8    S    
C9    N2    A    
C11   H3    S    
C4    C5    S    
C9    H1    S    
Cu1   O7    S    
C22   H15   S    
Cu2   O2    S    
C2    C20   A    
Cu2   O8    S    
C13   H5    S    
Cu1   O3    S    
C12   C16   S    
C1    O1    A    
C16   C17   D    
Cu1   O5    S    
