data_str_m2_o1_o16_f0_pcu.sym.22
_audit_creation_date              2012-10-26T20:06:07-0400
_audit_creation_method            fapswitch 2.2
_symmetry_space_group_name_H-M    P1
_symmetry_Int_Tables_number       1
_space_group_crystal_system       triclinic
_cell_length_a                    9.543025
_cell_length_b                    10.78212
_cell_length_c                    13.393639
_cell_angle_alpha                 90.029678
_cell_angle_beta                  73.272894
_cell_angle_gamma                 89.914094
_cell_volume                      1319.81010337

loop_
_atom_site_label
_atom_site_type_symbol
_atom_type_description
_atom_site_fract_x
_atom_site_fract_y
_atom_site_fract_z
_atom_type_partial_charge
C1    C     C_R   0.500282 0.737741 0.499115 0.553895
C2    C     C_R   0.383889 0.444343 0.809715 -0.005803
C3    C     C_R   0.628363 0.934654 0.442975 -0.113626
C4    C     C_R   0.423850 0.482664 0.698607 0.530708
C5    C     C_R   0.628009 0.063332 0.437797 0.257929
C6    C     C_R   0.501446 0.128441 0.493816 0.023028
C7    C     C_R   0.373612 0.064641 0.545565 -0.194707
C8    C     C_R   0.372821 0.936457 0.545765 -0.160219
C9    C     C_R   0.500796 0.871520 0.496340 -0.029284
C10   C     C_R   0.900873 0.581766 0.560087 -0.008320
C11   C     C_R   0.049421 0.580375 0.562728 0.345911
C12   C     C_R   0.446002 0.424218 0.974342 0.033879
C13   C     C_R   0.101262 0.418046 0.437588 0.354127
C14   C     C_R   0.949502 0.418350 0.439568 -0.020804
C15   C     C_R   0.500570 0.262306 0.498383 0.546530
C16   C     C_R   0.577678 0.498374 0.300009 0.530373
C17   C     C_R   0.807892 0.479897 0.020582 -0.147776
C18   C     C_R   0.621702 0.486703 0.186383 -0.011170
C19   C     C_R   0.236040 0.425106 0.863815 -0.144556
C20   C     C_R   0.195113 0.397217 0.969786 -0.148767
C21   C     C_R   0.296823 0.403113 0.025730 -0.125105
C22   C     C_3   0.736709 0.170422 0.287088 0.017448
C23   C     C_R   0.491169 0.426379 0.863871 0.031060
C24   C     C_3   0.794495 0.077055 0.198652 -0.283498
C25   C     C_3   0.791276 0.131324 0.094051 -0.473952
C26   C     C_3   0.014849 0.674999 0.724705 -0.028221
C27   C     C_3   0.951908 0.805123 0.748692 -0.393679
C28   C     C_3   0.159592 0.250428 0.315319 -0.047097
C29   C     C_3   0.094854 0.137598 0.381406 -0.367522
C30   C     C_R   0.552569 0.442462 0.028307 0.023392
C31   C     C_R   0.702470 0.448149 0.971225 0.051211
C32   C     C_R   0.745605 0.420861 0.865400 -0.157563
C33   C     C_R   0.641405 0.407644 0.812576 -0.125839
C34   C     C_R   0.514589 0.462128 0.136273 -0.139976
C35   C     C_R   0.768536 0.497174 0.127923 -0.154148
Cu1   Cu    Cu3+1 0.359340 0.499980 0.500000 1.040360
Cu2   Cu    Cu3+1 0.640660 0.500020 0.500000 0.922007
H1    H     H_    0.852534 0.519149 0.164909 0.126501
H2    H     H_    0.256623 0.385883 0.108281 0.093766
H3    H     H_    0.083556 0.373228 0.010276 0.105646
H4    H     H_    0.681518 0.378462 0.732398 0.158296
H5    H     H_    0.726763 0.884165 0.402813 0.134156
H6    H     H_    0.802445 0.256614 0.267681 0.150178
H7    H     H_    0.621861 0.196912 0.291767 0.126244
H8    H     H_    0.908866 0.051159 0.194348 0.164104
H9    H     H_    0.726117 0.991975 0.214479 0.158214
H10   H     H_    0.678013 0.158803 0.096630 0.158624
H11   H     H_    0.830726 0.060875 0.031746 0.146901
H12   H     H_    0.275094 0.113978 0.587257 0.132362
H13   H     H_    0.863646 0.213766 0.074693 0.150438
H14   H     H_    0.086981 0.656621 0.774990 0.157595
H15   H     H_    0.924542 0.606309 0.747478 0.098695
H16   H     H_    0.881099 0.827881 0.698414 0.147780
H17   H     H_    0.885564 0.810766 0.831624 0.110102
H18   H     H_    0.041769 0.874057 0.734813 0.147148
H19   H     H_    0.257455 0.217585 0.253715 0.145381
H20   H     H_    0.086689 0.289044 0.271720 0.093629
H21   H     H_    0.059644 0.068153 0.332372 0.134359
H22   H     H_    0.178780 0.094583 0.413110 0.155434
H23   H     H_    0.273623 0.888091 0.586740 0.170739
H24   H     H_    0.999234 0.163918 0.447408 0.175533
H25   H     H_    0.824609 0.648706 0.605912 0.134162
H26   H     H_    0.906823 0.354627 0.393877 0.144404
H27   H     H_    0.860382 0.410858 0.823095 0.091255
H28   H     H_    0.919936 0.494040 0.975099 0.099761
H29   H     H_    0.401832 0.461065 0.182685 0.145655
H30   H     H_    0.152315 0.429029 0.823851 0.113749
N1    N     N_R   0.147940 0.499970 0.499970 -0.201731
N2    N     N_R   0.852060 0.500060 0.499990 -0.289762
O1    O     O_R   0.381250 0.680340 0.500010 -0.448577
O2    O     O_3   0.101117 0.667996 0.619299 -0.534565
O3    O     O_3   0.208133 0.340147 0.374792 -0.529500
O4    O     O_R   0.618820 0.680370 0.500010 -0.510276
O5    O     O_R   0.323240 0.499950 0.650980 -0.483734
O6    O     O_R   0.560810 0.499980 0.650980 -0.519276
O7    O     O_R   0.381180 0.319630 0.499990 -0.474119
O8    O     O_R   0.618750 0.319660 0.499990 -0.483457
O9    O     O_R   0.439190 0.500020 0.349020 -0.466727
O10   O     O_R   0.676760 0.500050 0.349020 -0.519116
O11   O     O_3   0.754029 0.123827 0.381821 -0.590201

loop_
_geom_bond_atom_site_label_1
_geom_bond_atom_site_label_2
_ccdc_geom_bond_type
C3    H5    S    
Cu2   N2    S    
C19   C20   A    
C34   H29   S    
C28   H19   S    
C27   H17   S    
C7    C8    A    
C10   H25   S    
C28   H20   S    
Cu2   O10   S    
C12   C23   A    
C26   C27   S    
C24   H8    S    
Cu1   Cu2   S    
C5    C6    A    
C20   H3    S    
C27   H18   S    
C25   H13   S    
C4    O6    A    
Cu1   O7    S    
C6    C15   S    
C22   H7    S    
C22   H6    S    
C8    C9    A    
C23   C33   A    
C19   H30   S    
C18   C35   A    
C25   H10   S    
C4    O5    A    
C15   O7    A    
Cu2   O6    S    
C13   C14   A    
C26   O2    S    
C28   O3    S    
Cu1   O1    S    
C29   H24   S    
C30   C34   A    
C29   H22   S    
C35   H1    S    
C1    C9    S    
C24   C25   S    
C7    H12   S    
Cu2   O8    S    
C12   C21   A    
C2    C4    S    
C3    C9    A    
C26   H15   S    
C31   C32   A    
C21   H2    S    
C30   C31   A    
C27   H16   S    
C29   H21   S    
C5    O11   S    
C18   C34   A    
C25   H11   S    
C32   H27   S    
Cu1   O5    S    
C33   H4    S    
C17   C31   A    
C14   N2    A    
C22   C24   S    
C11   N1    A    
C16   O9    A    
Cu2   O4    S    
C28   C29   S    
C12   C30   A    
C2    C19   A    
C3    C5    A    
Cu1   N1    S    
C6    C7    A    
C13   O3    S    
C17   H28   S    
C1    O1    A    
C16   O10   A    
C1    O4    A    
C32   C33   A    
C22   O11   S    
Cu1   O9    S    
C26   H14   S    
C8    H23   S    
C15   O8    A    
C14   H26   S    
C11   O2    S    
C10   C11   A    
C10   N2    A    
C20   C21   A    
C16   C18   S    
C2    C23   A    
C17   C35   A    
C24   H9    S    
C13   N1    A    
