data_str_m2_o1_o14_f0_pcu.sym.132
_audit_creation_date              2012-12-10T17:56:43-0500
_audit_creation_method            fapswitch 2.2
_symmetry_space_group_name_H-M    P1
_symmetry_Int_Tables_number       1
_space_group_crystal_system       triclinic
_cell_length_a                    10.830635
_cell_length_b                    9.629955
_cell_length_c                    10.771396
_cell_angle_alpha                 89.999883
_cell_angle_beta                  94.355553
_cell_angle_gamma                 90.00009
_cell_volume                      1120.19620952

loop_
_atom_site_label
_atom_site_type_symbol
_atom_type_description
_atom_site_fract_x
_atom_site_fract_y
_atom_site_fract_z
_atom_type_partial_charge
C1    C     C_R   0.262469 0.499597 0.501205 0.779902
C2    C     C_R   0.737531 0.499598 0.498795 0.779902
C3    C     C_R   0.936129 0.623300 0.495438 -0.207291
C4    C     C_R   0.063871 0.623300 0.504557 -0.207292
C5    C     C_R   0.424338 0.076226 0.416176 0.036683
C6    C     C_R   0.575662 0.076226 0.583824 0.036685
C7    C     C_R   0.419995 0.927564 0.417533 0.167152
C8    C     C_R   0.580004 0.927564 0.582467 0.167154
C9    C     C_R   0.510300 0.500464 0.263206 0.793783
C10   C     C_R   0.489700 0.500463 0.736794 0.793784
C11   C     C_R   0.580160 0.755098 0.109387 0.172132
C12   C     C_R   0.419837 0.755093 0.890609 0.172130
C13   C     C_R   0.542041 0.880497 0.052163 -0.219836
C14   C     C_R   0.457954 0.880495 0.947829 -0.219822
C15   C     C_R   0.472679 0.628648 0.938589 0.032789
C16   C     C_R   0.527321 0.628650 0.061410 0.032791
C17   C     C_R   0.523429 0.502064 0.128900 -0.121701
C18   C     C_R   0.476570 0.502062 0.871100 -0.121701
C19   C     C_R   0.508000 0.376356 0.064162 -0.176028
C20   C     C_R   0.492001 0.376355 0.935839 -0.176029
C21   C     C_R   0.064041 0.371626 0.500421 -0.165683
C22   C     C_R   0.935959 0.371626 0.499586 -0.165681
C23   C     C_R   0.871442 0.498041 0.497183 -0.008631
C24   C     C_R   0.128558 0.498040 0.502818 -0.008631
Cu1   Cu    Cu3+1 0.500000 0.640660 0.500000 0.902208
Cu2   Cu    Cu3+1 0.500000 0.359340 0.500000 0.953333
H1    H     H_    0.509255 0.277568 0.112342 0.161504
H2    H     H_    0.490748 0.277567 0.887660 0.161504
H3    H     H_    0.576040 0.978843 0.089655 0.149416
H4    H     H_    0.423953 0.978839 0.910335 0.149418
H5    H     H_    0.112139 0.273016 0.499928 0.153576
H6    H     H_    0.887861 0.273016 0.500084 0.153578
H7    H     H_    0.888271 0.721221 0.487234 0.166615
H8    H     H_    0.111730 0.721221 0.512758 0.166618
N1    N     N_R   0.500000 0.852070 0.500000 -0.213697
N2    N     N_R   0.500000 0.147940 0.500000 -0.241824
O1    O     O_R   0.319640 0.618740 0.499990 -0.599225
O2    O     O_R   0.680360 0.618740 0.500010 -0.599222
O3    O     O_R   0.319620 0.381170 0.499990 -0.579142
O4    O     O_R   0.680380 0.381170 0.500010 -0.579142
O5    O     O_R   0.500000 0.618810 0.319650 -0.614181
O6    O     O_R   0.500000 0.618810 0.680350 -0.614181
O7    O     O_R   0.499970 0.381240 0.319640 -0.571111
O8    O     O_R   0.500030 0.381240 0.680360 -0.571111
C25   C     C_3   0.687306 0.758771 0.209016 -0.348549
C26   C     C_3   0.804755 0.818227 0.159232 -0.864438
H9    H     H_    0.792137 0.929237 0.133593 0.252807
H10   H     H_    0.882512 0.810735 0.232346 0.243500
H11   H     H_    0.829517 0.758547 0.076401 0.264143
H12   H     H_    0.661503 0.822764 0.288919 0.220994
H13   H     H_    0.711623 0.653012 0.243462 0.202278
C27   C     C_3   0.312689 0.758758 0.790981 -0.348551
C28   C     C_3   0.195243 0.818230 0.840760 -0.864451
H14   H     H_    0.170497 0.758587 0.923617 0.264150
H15   H     H_    0.207857 0.929250 0.866356 0.252801
H16   H     H_    0.117477 0.810701 0.767659 0.243505
H17   H     H_    0.338492 0.822738 0.711070 0.221006
H18   H     H_    0.288368 0.652996 0.756548 0.202271
C29   C     C_1   0.347987 0.154435 0.325289 0.322012
N3    N     N_1   0.286497 0.216599 0.252240 -0.315259
C30   C     C_1   0.652012 0.154434 0.674712 0.322006
N4    N     N_1   0.713502 0.216598 0.747760 -0.315262
C31   C     C_3   0.327342 0.858180 0.322604 -0.339557
C32   C     C_3   0.192021 0.897013 0.339142 -0.897495
H19   H     H_    0.178953 0.925582 0.437160 0.247734
H20   H     H_    0.161297 0.984800 0.277943 0.260843
H21   H     H_    0.130311 0.808698 0.310588 0.245615
H22   H     H_    0.350039 0.887570 0.227236 0.182605
H23   H     H_    0.330549 0.745789 0.324200 0.272024
C33   C     C_3   0.672659 0.858181 0.677394 -0.339557
C34   C     C_3   0.807980 0.897013 0.660850 -0.897489
H24   H     H_    0.821045 0.925578 0.562829 0.247733
H25   H     H_    0.838707 0.984802 0.722044 0.260840
H26   H     H_    0.869691 0.808699 0.689405 0.245616
H27   H     H_    0.649967 0.887572 0.772762 0.182605
H28   H     H_    0.669451 0.745789 0.675800 0.272023

loop_
_geom_bond_atom_site_label_1
_geom_bond_atom_site_label_2
_ccdc_geom_bond_type
C15   C18   A    
C10   O6    A    
C3    C23   A    
C19   C20   A    
Cu2   O8    S    
C28   H14   S    
C21   H5    S    
C26   H11   S    
C22   H6    S    
C6    C30   S    
C13   H3    S    
C4    C24   A    
Cu2   O3    S    
C25   H13   S    
C15   C16   A    
C5    N2    A    
C8    C33   S    
Cu1   O1    S    
C31   H22   S    
C31   H23   S    
C16   C17   A    
C33   C34   S    
C19   H1    S    
C1    O1    A    
C29   N3    T    
C13   C14   A    
C14   H4    S    
C12   C27   S    
Cu2   O7    S    
C26   H10   S    
C28   H15   S    
C4    H8    S    
C9    O7    A    
C5    C29   S    
C10   O8    A    
C32   H21   S    
Cu1   O5    S    
C5    C7    A    
C6    C8    A    
C20   H2    S    
Cu1   Cu2   S    
C25   C26   S    
C8    N1    A    
C32   H20   S    
Cu1   O2    S    
C11   C16   A    
C2    O2    A    
C12   C15   A    
C7    C31   S    
C27   H18   S    
Cu1   N1    S    
C9    C17   S    
C12   C14   A    
C33   H28   S    
C11   C25   S    
C3    C4    A    
C33   H27   S    
C27   C28   S    
C34   H25   S    
C28   H16   S    
Cu2   N2    S    
C26   H9    S    
C7    N1    A    
Cu1   O6    S    
C34   H26   S    
C9    O5    A    
C32   H19   S    
C34   H24   S    
C11   C13   A    
Cu2   O4    S    
C25   H12   S    
C10   C18   S    
C17   C19   A    
C6    N2    A    
C18   C20   A    
C30   N4    T    
C27   H17   S    
C1    O3    A    
C31   C32   S    
C2    O4    A    
C1    C24   S    
C21   C24   A    
C2    C23   S    
C3    H7    S    
C22   C23   A    
C21   C22   A    
