data_str_m2_o4_o4_f0_pcu.sym.73
_audit_creation_date              2012-12-10T19:07:38-0500
_audit_creation_method            fapswitch 2.2
_symmetry_space_group_name_H-M    P1
_symmetry_Int_Tables_number       1
_space_group_crystal_system       triclinic
_cell_length_a                    10.824201
_cell_length_b                    10.807365
_cell_length_c                    9.55179
_cell_angle_alpha                 89.81858
_cell_angle_beta                  90.051316
_cell_angle_gamma                 90.564175
_cell_volume                      1117.31862814

loop_
_atom_site_label
_atom_site_type_symbol
_atom_type_description
_atom_site_fract_x
_atom_site_fract_y
_atom_site_fract_z
_atom_type_partial_charge
C1    C     C_R   0.501388 0.262456 0.500295 0.788733
C2    C     C_R   0.475731 0.935874 0.621511 0.143951
C3    C     C_3   0.358472 0.929245 0.703909 -0.475772
C4    C     C_R   0.262496 0.496736 0.500071 0.789061
C5    C     C_3   0.360551 0.069633 0.705163 -0.462982
C6    C     C_R   0.588415 0.564291 0.073586 0.259160
C7    C     C_R   0.419715 0.427719 0.074573 -0.074580
C8    C     C_R   0.419638 0.427777 0.925700 -0.076630
C9    C     C_R   0.588921 0.563848 0.926199 0.236663
C10   C     C_3   0.613312 0.699797 0.920294 -0.443520
C11   C     C_3   0.611128 0.700255 0.078722 -0.527966
C12   C     C_R   0.937710 0.514782 0.622731 0.001657
C13   C     C_R   0.500203 0.737668 0.499922 0.856712
C14   C     C_R   0.737720 0.500648 0.499874 0.852535
C15   C     C_R   0.064402 0.505296 0.625116 0.026469
C16   C     C_R   0.129440 0.485597 0.501278 -0.030144
C17   C     C_R   0.063846 0.454508 0.379103 -0.185764
C18   C     C_R   0.934986 0.457801 0.378679 -0.187760
C19   C     C_R   0.871129 0.494430 0.499610 -0.026304
C20   C     C_3   0.940222 0.622092 0.722375 0.310785
C21   C     C_3   0.079561 0.606243 0.730176 -0.463957
C22   C     C_R   0.477087 0.063296 0.622029 0.145928
C23   C     C_R   0.510547 0.129427 0.502107 -0.095800
C24   C     C_R   0.558146 0.065601 0.386587 -0.209922
C25   C     C_R   0.557858 0.936554 0.386624 -0.176570
C26   C     C_R   0.508666 0.871084 0.501321 -0.061468
Cu1   Cu    Cu3+1 0.499990 0.499980 0.640670 0.964513
Cu2   Cu    Cu3+1 0.500010 0.500020 0.359330 0.951543
H1    H     H_    0.111741 0.432081 0.283091 0.148887
H2    H     H_    0.530823 0.751286 0.120908 0.216635
H3    H     H_    0.886032 0.435745 0.282867 0.152283
H4    H     H_    0.892146 0.602028 0.822754 0.057335
H5    H     H_    0.135432 0.685604 0.689831 0.230129
H6    H     H_    0.111141 0.569842 0.833009 0.157204
H7    H     H_    0.591916 0.114935 0.295211 0.164943
H8    H     H_    0.592945 0.888702 0.296129 0.156067
H9    H     H_    0.280112 0.889352 0.642972 0.213694
H10   H     H_    0.947326 0.864616 0.452137 0.371459
H11   H     H_    0.371772 0.888117 0.809480 0.199466
H12   H     H_    0.283106 0.111557 0.645537 0.200115
H13   H     H_    0.376477 0.109105 0.811069 0.199209
H14   H     H_    0.353159 0.371009 0.130507 0.135818
H15   H     H_    0.353006 0.371155 0.870021 0.137269
H16   H     H_    0.705936 0.722360 0.877332 0.241302
H17   H     H_    0.536077 0.752369 0.873341 0.217619
H18   H     H_    0.701990 0.723859 0.126509 0.209077
N1    N     N_R   0.500790 0.500930 0.147930 -0.184920
N2    N     N_R   0.500790 0.500890 0.852020 -0.186469
O1    O     O_R   0.500000 0.319640 0.618810 -0.581779
O2    O     O_2   0.936755 0.870573 0.740098 -0.294055
O3    O     O_3   0.975744 0.784394 0.490176 -0.540893
O4    O     O_R   0.500010 0.319680 0.381230 -0.591358
O5    O     O_R   0.319650 0.499970 0.618810 -0.588573
O6    O     O_R   0.319660 0.500010 0.381230 -0.587130
O7    O     O_R   0.499990 0.680320 0.618770 -0.565293
O8    O     O_R   0.500000 0.680360 0.381190 -0.589261
O9    O     O_R   0.680340 0.499990 0.618770 -0.574170
O10   O     O_R   0.680350 0.500030 0.381190 -0.589751
O11   O     O_2   0.763791 0.771482 0.617035 -0.333239
S1    S     S_3+6 0.900361 0.767258 0.643061 -0.030193

loop_
_geom_bond_atom_site_label_1
_geom_bond_atom_site_label_2
_ccdc_geom_bond_type
Cu1   N2    S    
C2    C22   A    
C23   C24   A    
Cu1   O5    S    
Cu2   N1    S    
C4    C16   S    
C18   H3    S    
Cu2   O10   S    
C4    O5    A    
C20   S1    S    
C17   H1    S    
C9    C10   S    
O3    S1    S    
C12   C15   A    
C15   C21   S    
C13   O8    A    
O2    S1    D    
C12   C20   S    
C10   H17   S    
C8    N2    A    
C2    C3    S    
Cu2   O8    S    
C3    H11   S    
C7    C8    A    
C2    C26   A    
C8    H15   S    
C20   C21   S    
Cu2   O4    S    
C6    C9    A    
C12   C19   A    
C1    C23   S    
C10   C11   S    
H10   O3    S    
C20   H4    S    
C14   O10   A    
C1    O4    A    
Cu1   O7    S    
C13   C26   S    
C7    H14   S    
C24   H7    S    
C21   H5    S    
C6    N1    A    
C25   H8    S    
C10   H16   S    
C15   C16   A    
C3    C5    S    
O11   S1    D    
C24   C25   A    
C3    H9    S    
C9    N2    A    
C17   C18   A    
C18   C19   A    
Cu1   O9    S    
C5    H12   S    
C6    C11   S    
C14   O9    A    
Cu2   O6    S    
C22   C23   A    
C11   H18   S    
C5    H13   S    
C21   H6    S    
C4    O6    A    
C25   C26   A    
C1    O1    A    
C14   C19   S    
C5    C22   S    
Cu1   O1    S    
C11   H2    S    
C13   O7    A    
C16   C17   A    
Cu1   Cu2   S    
C7    N1    A    
