data_str_m2_o1_o17_f0_pcu.sym.156
_audit_creation_date              2012-12-10T17:57:50-0500
_audit_creation_method            fapswitch 2.2
_symmetry_space_group_name_H-M    P1
_symmetry_Int_Tables_number       1
_space_group_crystal_system       triclinic
_cell_length_a                    10.869366
_cell_length_b                    9.494048
_cell_length_c                    15.070562
_cell_angle_alpha                 90.040088
_cell_angle_beta                  89.47235
_cell_angle_gamma                 89.71119
_cell_volume                      1555.10969583

loop_
_atom_site_label
_atom_site_type_symbol
_atom_type_description
_atom_site_fract_x
_atom_site_fract_y
_atom_site_fract_z
_atom_type_partial_charge
C1    C     C_R   0.263081 0.500324 0.511689 0.812986
C2    C     C_R   0.738593 0.498883 0.502816 0.823508
C3    C     C_R   0.382146 0.283146 0.044246 0.494590
C4    C     C_R   0.630811 0.713942 0.957165 0.519932
C5    C     C_R   0.065513 0.378602 0.557384 0.105970
C6    C     C_R   0.941954 0.617547 0.489522 0.087685
C7    C     C_R   0.934849 0.377313 0.553098 0.097616
C8    C     C_R   0.062686 0.626920 0.518735 0.099591
C9    C     C_R   0.873482 0.495755 0.512833 -0.142603
C10   C     C_R   0.129356 0.501242 0.529860 -0.146573
C11   C     C_R   0.555699 0.074059 0.432790 -0.037856
C12   C     C_R   0.444998 0.926009 0.567357 -0.059828
C13   C     C_R   0.446895 0.074742 0.568141 -0.025315
C14   C     C_R   0.556108 0.925121 0.432957 -0.031190
C15   C     C_R   0.496257 0.499971 0.328898 0.816818
C16   C     C_R   0.504083 0.500376 0.671137 0.775353
C17   C     C_R   0.585392 0.599148 0.813559 0.112890
C18   C     C_R   0.411133 0.410318 0.185556 0.148293
C19   C     C_R   0.511591 0.501381 0.767714 -0.116063
C20   C     C_R   0.490030 0.500836 0.232376 -0.088637
C21   C     C_R   0.443684 0.400617 0.813297 -0.252474
C22   C     C_R   0.562844 0.597992 0.187534 -0.259557
C23   C     C_R   0.444080 0.393778 0.905689 0.053550
C24   C     C_R   0.563114 0.606024 0.095071 0.052754
C25   C     C_R   0.506143 0.500396 0.953367 -0.075949
C26   C     C_R   0.499235 0.501659 0.046890 -0.072121
C27   C     C_R   0.575147 0.605437 0.907621 -0.037552
C28   C     C_R   0.428910 0.397929 0.092482 -0.037369
C29   C     C_R   0.384631 0.282268 0.951363 0.064775
C30   C     C_R   0.627510 0.714153 0.050003 0.061272
Cu1   Cu    Cu3+1 0.500000 0.640660 0.500000 0.922767
Cu2   Cu    Cu3+1 0.500000 0.359340 0.500000 0.921558
H1    H     H_    0.390887 0.326915 0.774696 0.151100
H2    H     H_    0.617909 0.668536 0.226706 0.157356
H3    H     H_    0.600670 0.129743 0.379092 0.126167
H4    H     H_    0.400342 0.870481 0.621127 0.132830
H5    H     H_    0.404529 0.130755 0.622964 0.125888
H6    H     H_    0.601495 0.868777 0.379425 0.129389
N1    N     N_R   0.500000 0.852070 0.500000 -0.156598
N2    N     N_R   0.500000 0.147930 0.500000 -0.155272
O1    O     O_R   0.319640 0.618740 0.499990 -0.576324
O2    O     O_R   0.680360 0.381260 0.500010 -0.582826
O3    O     O_R   0.680360 0.618740 0.500010 -0.583123
O4    O     O_R   0.319640 0.381260 0.499990 -0.574974
O5    O     O_R   0.499970 0.618800 0.370260 -0.584809
O6    O     O_R   0.500030 0.381200 0.629740 -0.597427
O7    O     O_R   0.500030 0.618800 0.629740 -0.580730
O8    O     O_R   0.499970 0.381200 0.370260 -0.587186
C31   C     C_3   0.686107 0.678691 0.762812 -0.296096
C32   C     C_3   0.645610 0.825507 0.731593 -0.660567
H7    H     H_    0.547359 0.846310 0.747677 0.237883
H8    H     H_    0.702371 0.908489 0.762766 0.261491
H9    H     H_    0.659289 0.834811 0.658739 0.221996
H10   H     H_    0.770930 0.685612 0.803074 0.217732
H11   H     H_    0.717260 0.617247 0.704083 0.150383
C33   C     C_3   0.299906 0.345421 0.233380 -0.342857
C34   C     C_3   0.212182 0.458396 0.270304 -0.873265
H12   H     H_    0.256603 0.525043 0.320893 0.257105
H13   H     H_    0.179095 0.526926 0.215678 0.255524
H14   H     H_    0.131381 0.407149 0.302085 0.242573
H15   H     H_    0.241643 0.282401 0.189058 0.262339
H16   H     H_    0.330095 0.273985 0.287246 0.226448
C35   C     C_3   0.325413 0.158833 0.903465 -0.370611
C36   C     C_3   0.421880 0.056453 0.866359 -0.777565
H17   H     H_    0.375067 0.967820 0.832678 0.221680
H18   H     H_    0.483454 0.108780 0.817537 0.243726
H19   H     H_    0.478349 0.013098 0.921041 0.297059
H20   H     H_    0.264114 0.098621 0.948825 0.255632
H21   H     H_    0.263745 0.196463 0.850112 0.165255
C37   C     C_3   0.691637 0.833473 0.098755 -0.387358
C38   C     C_3   0.599232 0.940392 0.136227 -0.747024
H22   H     H_    0.534140 0.890423 0.183625 0.252210
H23   H     H_    0.649072 0.025067 0.171605 0.223275
H24   H     H_    0.546210 0.988663 0.081378 0.297278
H25   H     H_    0.751254 0.791311 0.151746 0.171885
H26   H     H_    0.755967 0.891294 0.054405 0.258928
F1    F     F_    0.346825 0.163747 0.086941 -0.715381
F2    F     F_    0.682818 0.826133 0.916189 -0.711944
C39   C     C_3   0.135221 0.257181 0.600404 -0.365180
C40   C     C_3   0.151028 0.133390 0.536041 -0.823044
H27   H     H_    0.061960 0.097754 0.509063 0.224171
H28   H     H_    0.210520 0.161485 0.478746 0.281810
H29   H     H_    0.194291 0.044793 0.571690 0.228202
H30   H     H_    0.225856 0.290164 0.625894 0.194771
H31   H     H_    0.089258 0.223035 0.662697 0.181656
C41   C     C_3   0.894246 0.735061 0.429327 -0.382335
C42   C     C_3   0.858131 0.679895 0.337950 -0.835012
H32   H     H_    0.779818 0.605949 0.341872 0.245492
H33   H     H_    0.830544 0.770162 0.295800 0.225433
H34   H     H_    0.937703 0.625572 0.305922 0.252047
H35   H     H_    0.818201 0.795420 0.460989 0.216174
H36   H     H_    0.967174 0.814039 0.415947 0.189935
C43   C     C_3   0.863536 0.251640 0.592453 -0.370529
C44   C     C_3   0.798320 0.290800 0.679153 -0.794801
H37   H     H_    0.867043 0.319137 0.730165 0.232644
H38   H     H_    0.735786 0.381112 0.669721 0.244519
H39   H     H_    0.743624 0.199971 0.703562 0.241531
H40   H     H_    0.800579 0.203606 0.544062 0.219885
H41   H     H_    0.920706 0.159218 0.608107 0.197249
C45   C     C_3   0.109009 0.767361 0.553974 -0.390060
C46   C     C_3   0.149405 0.755343 0.650864 -0.833046
H42   H     H_    0.231281 0.686060 0.657358 0.252248
H43   H     H_    0.173159 0.860861 0.677155 0.225974
H44   H     H_    0.073298 0.712025 0.692144 0.251005
H45   H     H_    0.183427 0.810426 0.511427 0.229786
H46   H     H_    0.034056 0.847253 0.554106 0.189459

loop_
_geom_bond_atom_site_label_1
_geom_bond_atom_site_label_2
_ccdc_geom_bond_type
C42   H32   S    
C29   C35   S    
C43   C44   S    
C6    C9    A    
C45   H45   S    
C46   H42   S    
Cu1   O3    S    
C23   C29   A    
C3    C28   A    
C19   C21   A    
C24   C26   A    
C41   H35   S    
C39   H30   S    
C11   C14   A    
C34   H13   S    
C21   H1    S    
C31   H10   S    
C33   C34   S    
C18   C20   A    
C3    C29   A    
C13   N2    A    
C14   N1    A    
C35   H21   S    
C32   H8    S    
C37   C38   S    
C5    C39   S    
C43   H41   S    
C13   H5    S    
C18   C33   S    
C23   C25   A    
C46   H43   S    
Cu1   O7    S    
Cu2   O8    S    
C44   H37   S    
C15   O8    A    
C40   H29   S    
C22   H2    S    
C16   O7    A    
C30   C37   S    
C15   C20   S    
C7    C43   S    
C32   H9    S    
C17   C27   A    
C36   H19   S    
C18   C28   A    
C40   H28   S    
C17   C31   S    
C5    C7    A    
C41   C42   S    
C34   H14   S    
C6    C8    A    
C44   H39   S    
C25   C26   A    
C31   H11   S    
C35   C36   S    
C36   H18   S    
C4    F2    S    
C14   H6    S    
C1    O4    A    
Cu1   Cu2   S    
C2    O3    A    
C32   H7    S    
Cu2   O4    S    
C44   H38   S    
C1    O1    A    
C20   C22   A    
C46   H44   S    
C21   C23   A    
C37   H26   S    
C33   H16   S    
C12   H4    S    
C15   O5    A    
C16   O6    A    
C3    F1    S    
C39   H31   S    
C4    C27   A    
C38   H23   S    
C7    C9    A    
C35   H20   S    
Cu1   O1    S    
Cu2   O6    S    
C1    C10   S    
C40   H27   S    
C38   H24   S    
C45   H46   S    
C25   C27   A    
C26   C28   A    
C6    C41   S    
C36   H17   S    
C12   N1    A    
C42   H33   S    
C8    C45   S    
C5    C10   A    
C41   H36   S    
C34   H12   S    
C2    O2    A    
C16   C19   S    
C11   H3    S    
C45   C46   S    
C17   C19   A    
Cu1   N1    S    
C22   C24   A    
Cu2   N2    S    
C11   N2    A    
C24   C30   A    
C39   C40   S    
C38   H22   S    
C12   C13   A    
C8    C10   A    
C31   C32   S    
Cu1   O5    S    
C42   H34   S    
C37   H25   S    
Cu2   O2    S    
C33   H15   S    
C2    C9    S    
C43   H40   S    
C4    C30   A    
