data_str_m2_o5_o28_f0_pcu.sym.63
_audit_creation_date              2013-03-05T16:35:53-0500
_audit_creation_method            fapswitch 2.2
_symmetry_space_group_name_H-M    P1
_symmetry_Int_Tables_number       1
_space_group_crystal_system       triclinic
_cell_length_a                    23.594049
_cell_length_b                    9.092428
_cell_length_c                    7.777023
_cell_angle_alpha                 90.069275
_cell_angle_beta                  90.080141
_cell_angle_gamma                 89.973737
_cell_volume                      1668.37987896

loop_
_atom_site_label
_atom_site_type_symbol
_atom_site_description
_atom_site_fract_x
_atom_site_fract_y
_atom_site_fract_z
_atom_type_partial_charge
O1    O     O_R   0.500000 0.288390 0.642760 -0.573037
O2    O     O_R   0.500000 0.711610 0.357240 -0.575754
O3    O     O_R   0.500000 0.711610 0.642760 -0.562662
O4    O     O_R   0.500000 0.288390 0.357240 -0.574952
H1    H     H_    0.948688 0.125913 0.461302 0.186201
H2    H     H_    0.050882 0.865537 0.558193 0.186368
H3    H     H_    0.947910 0.864643 0.562467 0.186644
H4    H     H_    0.051673 0.125801 0.470691 0.186816
C1    C     C_R   0.500015 0.219989 0.499938 0.843261
C2    C     C_R   0.500053 0.780010 0.500061 0.865410
O5    O     O_R   0.417880 0.500000 0.642820 -0.549142
O6    O     O_R   0.582120 0.500000 0.357180 -0.543863
O7    O     O_R   0.582120 0.500000 0.642820 -0.545409
O8    O     O_R   0.417880 0.500000 0.357180 -0.545511
C3    C     C_R   0.208656 0.497085 0.511611 0.207976
C4    C     C_R   0.791071 0.495354 0.504669 0.208025
C5    C     C_R   0.390655 0.501966 0.499704 0.872400
C6    C     C_R   0.609278 0.499493 0.500139 0.849006
Cu1   Cu    Cu3+1 0.500000 0.500000 0.669080 1.143530
Cu2   Cu    Cu3+1 0.500000 0.500000 0.330920 1.140992
H5    H     H_    0.216479 0.624259 0.743358 0.201844
H6    H     H_    0.783187 0.342943 0.714970 0.193714
H7    H     H_    0.214410 0.373220 0.276154 0.193021
H8    H     H_    0.785243 0.647758 0.293640 0.193413
C7    C     C_R   0.298351 0.580505 0.632659 0.283591
C8    C     C_R   0.701491 0.409464 0.620784 0.280834
C9    C     C_R   0.296949 0.430501 0.371013 0.278384
C10   C     C_R   0.702620 0.584115 0.382259 0.280252
C11   C     C_R   0.328048 0.506421 0.499465 -0.266556
C12   C     C_R   0.671739 0.497585 0.500810 -0.262537
C13   C     C_R   0.880477 0.625372 0.530567 0.559027
C14   C     C_R   0.119090 0.364884 0.505517 0.558601
C15   C     C_R   0.880740 0.365004 0.487507 0.558986
C16   C     C_R   0.118747 0.627317 0.523806 0.558121
N1    N     N_R   0.852050 0.495198 0.507610 -0.452627
N2    N     N_R   0.147578 0.496302 0.514591 -0.450951
C17   C     C_R   0.940171 0.362147 0.492518 -0.021582
C18   C     C_R   0.059340 0.629208 0.528304 -0.020234
C19   C     C_R   0.939900 0.628391 0.530340 -0.021790
C20   C     C_R   0.059648 0.362194 0.500649 -0.021667
C21   C     C_R   0.969857 0.495341 0.512430 -0.015245
C22   C     C_R   0.029668 0.495553 0.514003 -0.015559
C23   C     C_R   0.970501 0.229780 0.477111 -0.154036
C24   C     C_R   0.029038 0.761448 0.545391 -0.153308
C25   C     C_R   0.969941 0.760919 0.547899 -0.154202
C26   C     C_R   0.029607 0.229686 0.482602 -0.153465
C27   C     C_1   0.500035 0.065364 0.499919 -0.083907
C28   C     C_1   0.500047 0.934631 0.500090 -0.075701
C29   C     C_R   0.239206 0.570252 0.640139 -0.132741
C30   C     C_R   0.760672 0.409629 0.621850 -0.121383
C31   C     C_R   0.237835 0.428598 0.377137 -0.120346
C32   C     C_R   0.761810 0.581803 0.385131 -0.122578
N3    N     N_1   0.500000 0.500000 0.076820 0.013645
N4    N     N_1   0.500000 0.500000 0.923180 0.012625
O9    O     O_2   0.851334 0.751418 0.555084 -0.490644
O10   O     O_2   0.148143 0.237013 0.502579 -0.491703
O11   O     O_2   0.851884 0.238860 0.460941 -0.490997
O12   O     O_2   0.147406 0.755743 0.526008 -0.494490
N5    N     N_R   0.327018 0.672771 0.755502 0.165603
O13   O     O_R   0.365960 0.764025 0.704295 -0.333245
O14   O     O_R   0.307190 0.686140 0.910807 -0.285403
N6    N     N_R   0.672391 0.314430 0.737712 0.130754
O15   O     O_R   0.651348 0.368149 0.878973 -0.278222
O16   O     O_R   0.678422 0.172741 0.723000 -0.293944
N7    N     N_R   0.324564 0.350148 0.236626 0.133140
O17   O     O_R   0.317854 0.208390 0.227105 -0.297917
O18   O     O_R   0.344694 0.420219 0.104439 -0.285001
N8    N     N_R   0.674711 0.679865 0.263132 0.130507
O19   O     O_R   0.682698 0.821082 0.274477 -0.292181
O20   O     O_R   0.652818 0.625838 0.123114 -0.278200

loop_
_geom_bond_atom_site_label_1
_geom_bond_atom_site_label_2
_geom_bond_distance
_ccdc_geom_bond_type
H8    C32   1.083509 S    
C7    C11   1.420405 A    
C20   C26   1.404917 A    
C10   C12   1.415648 A    
C18   C24   1.404855 A    
N6    O15   1.300757 A    
C9    N7    1.431863 S    
C3    C31   1.398384 A    
C9    C11   1.417602 A    
C5    C11   1.477704 S    
C21   C22   1.411231 A    
H7    C31   1.083446 S    
Cu1   Cu2   2.629879 S    
N7    O18   1.300598 A    
H6    C30   1.083505 S    
C19   C25   1.404698 A    
O6    Cu2   1.947993 S    
C20   C22   1.407307 A    
N6    O16   1.300987 A    
C8    N6    1.431487 S    
Cu2   N3    1.976141 S    
N5    O13   1.301436 A    
C19   C21   1.407689 A    
O3    C2    1.272814 A    
H2    C24   1.082278 S    
N3    N4    1.194863 T    
C3    C29   1.399302 A    
O3    Cu1   1.935152 S    
C10   C32   1.396847 A    
O8    C5    1.281967 A    
O5    Cu1   1.947995 S    
C4    C32   1.399343 A    
C8    C12   1.415899 A    
O7    C6    1.282134 A    
C17   C21   1.407563 A    
C6    C12   1.473792 S    
H3    C25   1.082550 S    
Cu1   N4    1.976141 S    
H5    C29   1.083077 S    
C15   N1    1.372272 A    
C9    C31   1.395727 A    
C15   C17   1.402913 A    
C18   C22   1.406967 A    
C16   N2    1.373361 A    
C8    C30   1.396329 A    
C4    N1    1.438891 S    
C2    C28   1.405878 S    
C4    C30   1.398766 A    
C23   C26   1.395139 A    
C13   N1    1.372050 A    
C17   C23   1.405015 A    
N5    O14   1.301398 A    
C1    C27   1.405917 S    
O1    Cu1   1.934661 S    
O7    Cu1   1.948561 S    
O2    Cu2   1.934660 S    
O4    Cu2   1.935153 S    
C14   N2    1.372935 A    
C3    N2    1.441317 S    
C14   C20   1.403166 A    
O1    C1    1.272338 A    
C24   C25   1.394512 A    
O8    Cu2   1.948563 S    
N8    O20   1.300482 A    
N7    O17   1.300692 A    
O6    C6    1.282469 A    
C16   O12   1.349695 S    
H1    C23   1.082534 S    
C15   O11   1.349622 S    
C7    N5    1.439008 S    
H4    C26   1.082279 S    
C13   O9    1.349709 S    
O4    C1    1.272813 A    
C16   C18   1.402239 A    
C14   O10   1.349597 S    
O5    C5    1.284428 A    
C27   C28   1.188680 T    
C13   C19   1.402307 A    
N8    O19   1.300719 A    
C10   N8    1.431634 S    
C7    C29   1.399932 A    
O2    C2    1.272330 A    
