data_str_m1_o9_o24_f0_pcu.sym.248
_audit_creation_date              2012-12-10T21:00:45-0500
_audit_creation_method            fapswitch 2.2
_symmetry_space_group_name_H-M    P1
_symmetry_Int_Tables_number       1
_space_group_crystal_system       triclinic
_cell_length_a                    18.098457
_cell_length_b                    18.168332
_cell_length_c                    18.351659
_cell_angle_alpha                 119.617867
_cell_angle_beta                  90.16107
_cell_angle_gamma                 120.031495
_cell_volume                      4283.46250696

loop_
_atom_site_label
_atom_site_type_symbol
_atom_type_description
_atom_site_fract_x
_atom_site_fract_y
_atom_site_fract_z
_atom_type_partial_charge
C1    C     C_R   0.111789 0.220054 0.609985 0.787069
C2    C     C_R   0.888383 0.779878 0.389913 0.790545
C3    C     C_3   0.924164 0.406735 0.448124 0.432724
C4    C     C_3   0.077481 0.595147 0.551500 0.462449
C5    C     C_3   0.443472 0.965423 0.925412 -0.160288
C6    C     C_3   0.556578 0.034072 0.073561 -0.171161
C7    C     C_3   0.547998 0.038157 0.956629 -0.183708
C8    C     C_3   0.451996 0.961433 0.042422 -0.178615
C9    C     C_3   0.549102 0.102226 0.051774 0.059907
C10   C     C_3   0.450859 0.897446 0.947370 0.068067
C11   C     C_3   0.445196 0.030802 0.021164 -0.157870
C12   C     C_3   0.554633 0.968584 0.977730 -0.157962
C13   C     C_3   0.422437 0.410475 0.459223 0.603607
C14   C     C_3   0.575899 0.596782 0.539243 0.619250
C15   C     C_3   0.516718 0.433532 0.482988 -0.313072
C16   C     C_3   0.481187 0.573423 0.516356 -0.393786
C17   C     C_3   0.549155 0.501718 0.447519 -0.076314
C18   C     C_3   0.449957 0.504881 0.551707 -0.072427
C19   C     C_3   0.454085 0.477280 0.422156 -0.357756
C20   C     C_3   0.544981 0.530164 0.576379 -0.252344
C21   C     C_R   0.208102 0.143374 0.791022 -0.174207
C22   C     C_R   0.812951 0.853134 0.192727 -0.149864
C23   C     C_R   0.393094 0.781220 0.888378 0.769526
C24   C     C_R   0.606867 0.218667 0.111327 0.767534
C25   C     C_R   0.171320 0.116936 0.707881 -0.133957
C26   C     C_R   0.845710 0.892569 0.281881 -0.164213
C27   C     C_R   0.085125 0.093819 0.683383 0.162879
C28   C     C_R   0.923959 0.903841 0.313147 0.150936
C29   C     C_R   0.036187 0.096870 0.742755 -0.143837
C30   C     C_R   0.969554 0.876267 0.254599 -0.090789
C31   C     C_R   0.074648 0.127312 0.827192 -0.096438
C32   C     C_R   0.936092 0.836080 0.165270 -0.113217
C33   C     C_R   0.160597 0.150373 0.851285 -0.110115
C34   C     C_R   0.857711 0.824330 0.134294 -0.111785
C35   C     C_R   0.983819 0.942584 0.534748 -0.253495
C36   C     C_R   0.015576 0.057149 0.464705 -0.251705
C37   C     C_R   0.944509 0.892159 0.444147 -0.048218
C38   C     C_R   0.055768 0.107666 0.555368 -0.051905
C39   C     C_R   0.961135 0.950144 0.408276 -0.014602
C40   C     C_R   0.040413 0.049430 0.590734 -0.023768
C41   C     C_R   0.686204 0.829544 0.005975 0.543087
C42   C     C_R   0.338858 0.166651 0.989233 0.507741
C43   C     C_R   0.643180 0.730820 0.988479 -0.224526
C44   C     C_R   0.377262 0.267397 0.012354 -0.224186
C45   C     C_R   0.108243 0.498174 0.887440 0.834195
C46   C     C_R   0.885327 0.495806 0.106562 0.835400
C47   C     C_R   0.573842 0.695468 0.022344 0.078326
C48   C     C_R   0.433757 0.303141 0.968772 0.083470
C49   C     C_R   0.547329 0.759595 0.074374 -0.164670
C50   C     C_R   0.451173 0.237720 0.901322 -0.202242
C51   C     C_R   0.591561 0.859350 0.094261 -0.207006
C52   C     C_R   0.410740 0.136406 0.876476 -0.230322
C53   C     C_R   0.661739 0.895117 0.061695 -0.236619
C54   C     C_R   0.353688 0.100585 0.919432 -0.179944
C55   C     C_R   0.584382 0.590431 0.062421 -0.277301
C56   C     C_R   0.417656 0.410460 0.936540 -0.257301
C57   C     C_R   0.551212 0.497188 0.052713 -0.040738
C58   C     C_R   0.450067 0.503717 0.946913 -0.042366
C59   C     C_R   0.468086 0.405649 0.988118 0.016628
C60   C     C_R   0.534867 0.594748 0.009323 0.014609
C61   C     C_R   0.195541 0.824435 0.021139 -0.153013
C62   C     C_R   0.808592 0.180725 0.019084 -0.121296
C63   C     C_R   0.145974 0.741231 0.028327 -0.135029
C64   C     C_R   0.831445 0.250160 0.995814 -0.113377
C65   C     C_R   0.062973 0.651617 0.962406 0.252692
C66   C     C_R   0.922330 0.332611 0.024465 0.239760
C67   C     C_R   0.392612 0.501721 0.608111 0.839432
C68   C     C_R   0.607222 0.500108 0.391777 0.802870
C69   C     C_R   0.029481 0.646832 0.889988 -0.090184
C70   C     C_R   0.989761 0.343422 0.075456 -0.089061
C71   C     C_R   0.078201 0.731294 0.884154 -0.126748
C72   C     C_R   0.966464 0.273972 0.098775 -0.154578
C73   C     C_R   0.161664 0.819746 0.949227 -0.094938
C74   C     C_R   0.875930 0.192879 0.070832 -0.133058
C75   C     C_R   0.951498 0.547498 0.007294 0.438657
C76   C     C_R   0.996420 0.405133 0.941686 0.438599
C77   C     C_R   0.928246 0.482725 0.037391 -0.270312
C78   C     C_R   0.040934 0.488914 0.933395 -0.266538
C79   C     C_R   0.948124 0.407755 0.001010 -0.179811
C80   C     C_R   0.016656 0.559636 0.965517 -0.169736
C81   C     C_R   0.394008 0.501981 0.890432 0.807785
C82   C     C_R   0.606228 0.498350 0.109652 0.806565
C83   C     C_R   0.108875 0.500031 0.608010 0.891203
C84   C     C_R   0.891655 0.500604 0.391916 0.908004
C85   C     C_3   0.019249 0.430694 0.447821 -0.523423
C86   C     C_3   0.982443 0.571418 0.551441 -0.490766
C87   C     C_3   0.044899 0.526980 0.449637 0.467265
C88   C     C_3   0.956436 0.475344 0.549901 0.432348
C89   C     C_3   0.949980 0.501553 0.448622 -0.184066
C90   C     C_3   0.051669 0.500409 0.551211 -0.213098
H1    H     H_    0.189499 0.171597 0.915871 0.150239
H2    H     H_    0.832010 0.793450 0.065203 0.153006
H3    H     H_    0.273069 0.157375 0.808242 0.153461
H4    H     H_    0.752972 0.845320 0.169190 0.144654
H5    H     H_    0.208342 0.110602 0.661400 0.120090
H6    H     H_    0.810664 0.915005 0.326616 0.124147
H7    H     H_    0.967617 0.073200 0.722768 0.122158
H8    H     H_    0.030748 0.885908 0.278208 0.122013
H9    H     H_    0.036899 0.130427 0.873010 0.140349
H10   H     H_    0.971194 0.814647 0.120204 0.167617
H11   H     H_    0.972869 0.898600 0.562393 0.181588
H12   H     H_    0.026733 0.100998 0.436886 0.171682
H13   H     H_    0.697494 0.974085 0.081126 0.129113
H14   H     H_    0.322256 0.022014 0.899713 0.129885
H15   H     H_    0.664367 0.681811 0.948830 0.142722
H16   H     H_    0.362915 0.317378 0.063823 0.134720
H17   H     H_    0.494429 0.733466 0.101567 0.127425
H18   H     H_    0.494050 0.264366 0.866627 0.137342
H19   H     H_    0.035998 0.374715 0.408685 0.174741
H20   H     H_    0.966085 0.627581 0.591173 0.191686
H21   H     H_    0.572625 0.909756 0.136479 0.148618
H22   H     H_    0.423017 0.085359 0.823478 0.151744
H23   H     H_    0.648706 0.660429 0.112327 0.172122
H24   H     H_    0.353680 0.340603 0.886399 0.173431
H25   H     H_    0.200378 0.884029 0.943403 0.129298
H26   H     H_    0.858037 0.139448 0.089225 0.128425
H27   H     H_    0.260707 0.891698 0.070926 0.123731
H28   H     H_    0.738687 0.117752 0.997359 0.122083
H29   H     H_    0.173518 0.745133 0.083606 0.112353
H30   H     H_    0.778488 0.240712 0.956711 0.087708
H31   H     H_    0.967901 0.576596 0.836600 0.108938
H32   H     H_    0.060188 0.406029 0.097548 0.127768
H33   H     H_    0.051982 0.727229 0.828320 0.119019
H34   H     H_    0.018535 0.282959 0.138513 0.129755
H35   H     H_    0.587645 0.070503 0.921457 0.117769
H36   H     H_    0.412676 0.929060 0.077681 0.122620
H37   H     H_    0.396781 0.935389 0.863249 0.115565
H38   H     H_    0.603871 0.063589 0.135100 0.126398
H39   H     H_    0.399930 0.056128 0.038608 0.151779
H40   H     H_    0.598132 0.940934 0.958281 0.136082
H41   H     H_    0.530730 0.375396 0.467501 0.156567
H42   H     H_    0.463166 0.628206 0.530897 0.148297
H43   H     H_    0.420530 0.458654 0.358924 0.155834
H44   H     H_    0.582003 0.553434 0.640499 0.163961
O1    O     O_3   0.251620 0.500000 0.748430 -0.486338
O2    O     O_3   0.748380 0.500000 0.251570 -0.487173
O3    O     O_R   0.134680 0.560740 0.864590 -0.641378
O4    O     O_R   0.865320 0.439260 0.135410 -0.639768
O5    O     O_R   0.306670 0.439270 0.571150 -0.636708
O6    O     O_R   0.693330 0.560730 0.428850 -0.617098
O7    O     O_R   0.135450 0.268370 0.694460 -0.648400
O8    O     O_R   0.864550 0.731630 0.305540 -0.634247
O9    O     O_R   0.429670 0.731610 0.863510 -0.646484
O10   O     O_R   0.570330 0.268390 0.136490 -0.660883
O11   O     O_R   0.134680 0.268390 0.572240 -0.650250
O12   O     O_R   0.865320 0.731610 0.427760 -0.653297
O13   O     O_R   0.306670 0.731630 0.863510 -0.639909
O14   O     O_R   0.693330 0.268370 0.136490 -0.636646
O15   O     O_R   0.135450 0.439270 0.865360 -0.604846
O16   O     O_R   0.864550 0.560730 0.134640 -0.619309
O17   O     O_R   0.429670 0.560710 0.692610 -0.659276
O18   O     O_R   0.570330 0.439290 0.307390 -0.665766
O19   O     O_R   0.308540 0.439240 0.865360 -0.638746
O20   O     O_R   0.691460 0.560760 0.134640 -0.665526
O21   O     O_R   0.133580 0.439310 0.571150 -0.663092
O22   O     O_R   0.866420 0.560690 0.428850 -0.655020
O23   O     O_R   0.430770 0.560690 0.864590 -0.642647
O24   O     O_R   0.569230 0.439310 0.135410 -0.648022
O25   O     O_R   0.133580 0.560760 0.692610 -0.639765
O26   O     O_R   0.866420 0.439240 0.307390 -0.614038
Zn1   Zn    Zn3+2 0.207400 0.586780 0.791530 0.969187
Zn2   Zn    Zn3+2 0.792600 0.413220 0.208470 0.988283
Zn3   Zn    Zn3+2 0.208510 0.413230 0.792630 0.981306
Zn4   Zn    Zn3+2 0.791490 0.586770 0.207370 0.961404
Zn5   Zn    Zn3+2 0.383150 0.586740 0.791530 0.952882
Zn6   Zn    Zn3+2 0.616850 0.413260 0.208470 0.930289
Zn7   Zn    Zn3+2 0.207400 0.413250 0.618010 0.948262
Zn8   Zn    Zn3+2 0.792600 0.586750 0.381990 0.972125
O27   O     O_3   0.089465 0.562194 0.399037 -0.628026
C91   C     C_3   0.134135 0.514993 0.360621 0.114858
H45   H     H_    0.083361 0.430565 0.309439 0.134128
H46   H     H_    0.179928 0.526941 0.412282 0.149369
C92   C     C_3   0.190916 0.563178 0.315456 -0.314844
H47   H     H_    0.146507 0.553476 0.264725 0.222214
H48   H     H_    0.242320 0.647496 0.365816 0.229632
C93   C     C_3   0.238858 0.512544 0.270616 -0.999241
H49   H     H_    0.284096 0.521817 0.320266 0.269638
H50   H     H_    0.280286 0.549908 0.239274 0.270151
H51   H     H_    0.188583 0.428690 0.218212 0.263381
O28   O     O_3   0.911261 0.446209 0.603350 -0.650883
C94   C     C_3   0.828153 0.435549 0.592044 0.124105
H52   H     H_    0.775525 0.363414 0.585520 0.148515
H53   H     H_    0.803328 0.426712 0.530565 0.159160
C95   C     C_3   0.835669 0.527365 0.673648 -0.372661
H54   H     H_    0.841598 0.522517 0.731012 0.216963
H55   H     H_    0.897269 0.601585 0.691041 0.221526
C96   C     C_3   0.753063 0.527680 0.657341 -0.950319
H56   H     H_    0.747981 0.537006 0.602470 0.283344
H57   H     H_    0.759461 0.593374 0.718437 0.270553
H58   H     H_    0.690300 0.454139 0.639887 0.255202
O29   O     O_3   0.756582 0.861797 0.973423 -0.665428
C97   C     C_3   0.741958 0.894451 0.922329 0.045886
H59   H     H_    0.803867 0.926872 0.904818 0.180775
H60   H     H_    0.734588 0.958855 0.961073 0.114006
C98   C     C_3   0.661469 0.803998 0.835407 -0.330549
H61   H     H_    0.673971 0.744053 0.795157 0.231547
H62   H     H_    0.598300 0.767861 0.849974 0.243389
C99   C     C_3   0.647550 0.841110 0.781529 -0.930050
H63   H     H_    0.708600 0.875056 0.763505 0.265209
H64   H     H_    0.634144 0.900494 0.820195 0.245173
H65   H     H_    0.588442 0.774442 0.719954 0.272153
O30   O     O_3   0.285396 0.130847 0.033294 -0.671230
C100  C     C_3   0.338776 0.187534 0.122577 0.067515
H66   H     H_    0.334311 0.253862 0.164898 0.131131
H67   H     H_    0.411682 0.219380 0.131280 0.191180
C101  C     C_3   0.302725 0.116037 0.153908 -0.366292
H68   H     H_    0.242808 0.109927 0.172912 0.209028
H69   H     H_    0.279763 0.037385 0.098221 0.231891
C102  C     C_3   0.374963 0.152814 0.231022 -0.949900
H70   H     H_    0.427550 0.142283 0.207332 0.260765
H71   H     H_    0.343373 0.106514 0.258622 0.266935
H72   H     H_    0.408288 0.235997 0.284532 0.281186
O31   O     O_3   0.922035 0.610942 0.028948 -0.639328
C103  C     C_3   0.827902 0.551132 0.983571 0.156916
H73   H     H_    0.800112 0.590603 0.029012 0.201897
H74   H     H_    0.788920 0.470709 0.966525 0.097107
C104  C     C_3   0.810960 0.545975 0.899131 -0.427553
H75   H     H_    0.854561 0.624948 0.913905 0.239718
H76   H     H_    0.827525 0.495117 0.848898 0.206518
C105  C     C_3   0.711901 0.501013 0.861069 -0.955168
H77   H     H_    0.667276 0.420990 0.843800 0.258899
H78   H     H_    0.701222 0.498402 0.800072 0.276311
H79   H     H_    0.692953 0.549928 0.910082 0.264233
O32   O     O_3   0.003450 0.322431 0.895749 -0.621631
C106  C     C_3   0.949296 0.257278 0.804991 0.136900
H80   H     H_    0.987017 0.230703 0.764498 0.181985
H81   H     H_    0.935779 0.296868 0.781381 0.094621
C107  C     C_3   0.859390 0.162908 0.786943 -0.386557
H82   H     H_    0.872313 0.124773 0.812448 0.232108
H83   H     H_    0.818497 0.188624 0.821834 0.213239
C108  C     C_3   0.805320 0.084812 0.687862 -1.000466
H84   H     H_    0.788394 0.120386 0.662123 0.271608
H85   H     H_    0.741398 0.016519 0.676873 0.267888
H86   H     H_    0.844756 0.058338 0.650478 0.260535
O33   O     O_3   0.838167 0.311575 0.394090 -0.659828
C109  C     C_3   0.841881 0.227218 0.370950 0.118808
H87   H     H_    0.777216 0.167723 0.368969 0.147666
H88   H     H_    0.896498 0.247548 0.420806 0.141172
C110  C     C_3   0.850156 0.179475 0.278082 -0.358536
H89   H     H_    0.789190 0.149301 0.228771 0.220898
H90   H     H_    0.910148 0.239287 0.275482 0.225144
C111  C     C_3   0.858822 0.091252 0.252684 -0.964333
H91   H     H_    0.920738 0.120388 0.299919 0.270657
H92   H     H_    0.863572 0.057370 0.184820 0.281283
H93   H     H_    0.798569 0.029720 0.253364 0.266161
O34   O     O_3   0.162790 0.692088 0.602322 -0.634509
C112  C     C_3   0.162510 0.756596 0.687196 0.107760
H94   H     H_    0.230184 0.802659 0.736262 0.140520
H95   H     H_    0.113467 0.712210 0.710347 0.150377
C113  C     C_3   0.146032 0.832014 0.687912 -0.365139
H96   H     H_    0.209934 0.896807 0.694360 0.219355
H97   H     H_    0.094631 0.792034 0.624323 0.244092
C114  C     C_3   0.112972 0.875870 0.764111 -0.946796
H98   H     H_    0.045546 0.812879 0.754655 0.255770
H99   H     H_    0.106560 0.934064 0.765331 0.285104
H100  H     H_    0.161208 0.913666 0.828737 0.267995
O35   O     O_3   0.341332 0.312285 0.426280 -0.641896
C115  C     C_3   0.278469 0.275747 0.350287 0.074359
H101  H     H_    0.231005 0.190389 0.314824 0.170908
H102  H     H_    0.310862 0.289340 0.302987 0.129114
C116  C     C_3   0.222519 0.320446 0.374370 -0.308026
H103  H     H_    0.185113 0.299047 0.416239 0.262458
H104  H     H_    0.267655 0.406285 0.411960 0.222415
C117  C     C_3   0.154160 0.277818 0.291005 -1.019147
H105  H     H_    0.189637 0.299418 0.248329 0.270541
H106  H     H_    0.114170 0.310665 0.310135 0.258402
H107  H     H_    0.106934 0.192024 0.252657 0.276445
O36   O     O_3   0.662522 0.692178 0.580976 -0.634165
C118  C     C_3   0.662724 0.763059 0.568162 0.075193
H108  H     H_    0.727001 0.840261 0.615829 0.174092
H109  H     H_    0.607775 0.772308 0.585367 0.120971
C119  C     C_3   0.660284 0.735501 0.474008 -0.354871
H110  H     H_    0.714286 0.724136 0.457737 0.250831
H111  H     H_    0.593681 0.662909 0.425003 0.202846
C120  C     C_3   0.675248 0.821107 0.465780 -0.985867
H112  H     H_    0.624756 0.838084 0.485381 0.270551
H113  H     H_    0.667973 0.795958 0.395817 0.261097
H114  H     H_    0.744530 0.892535 0.508434 0.272196

loop_
_geom_bond_atom_site_label_1
_geom_bond_atom_site_label_2
_ccdc_geom_bond_type
O6    Zn8   S    
C30   C32   A    
C100  H66   S    
C63   C65   A    
C2    O12   A    
C105  H79   S    
C27   C29   A    
C41   C43   A    
O27   C91   S    
C1    O11   A    
C110  H89   S    
C2    C37   S    
C76   C79   A    
O32   C106  S    
C106  C107  S    
C6    C9    S    
C107  H83   S    
C84   O26   A    
C22   C26   A    
C49   H17   S    
C4    C87   S    
O2    Zn2   S    
C92   H47   S    
C76   O32   S    
C104  C105  S    
C66   C79   S    
C100  H67   S    
C55   C60   A    
C12   H40   S    
C13   C18   S    
O19   Zn3   S    
C109  H88   S    
C54   H14   S    
C120  H113  S    
C76   C78   A    
C5    C11   S    
C85   H19   S    
C117  H107  S    
O8    Zn4   S    
C116  H103  S    
C82   O24   A    
C78   C80   A    
C57   C59   A    
C21   C33   A    
C91   H45   S    
C52   H22   S    
C57   C82   S    
C58   C60   A    
C87   O27   S    
C65   C69   A    
C102  H72   S    
C81   O19   A    
C95   H54   S    
O2    Zn6   S    
C36   H12   S    
O35   C115  S    
C43   H15   S    
C69   C71   A    
C13   O35   S    
O9    Zn5   S    
C96   H58   S    
C62   C64   A    
C106  H81   S    
C47   C60   S    
C87   C89   S    
C93   H51   S    
C120  H112  S    
O21   Zn7   S    
C119  H110  S    
C49   C51   A    
C111  H92   S    
O33   C109  S    
O25   Zn1   S    
C99   H63   S    
O15   Zn3   S    
C31   H9    S    
C112  C113  S    
C67   O5    A    
C75   C80   A    
C18   C20   S    
C46   O4    A    
C98   C99   S    
C3    O33   S    
O2    Zn4   S    
C113  C114  S    
C85   C87   S    
C41   C53   A    
C38   C40   A    
C118  H108  S    
C72   H34   S    
C108  H86   S    
C50   H18   S    
O1    Zn1   S    
C14   C17   S    
C23   O9    A    
C15   C20   S    
O12   Zn8   S    
C42   C44   A    
O1    Zn7   S    
C11   H39   S    
C6    C12   S    
C45   O3    A    
C105  H77   S    
C52   C54   A    
C88   O28   S    
C4    C90   S    
C112  H95   S    
C26   H6    S    
C7    C12   S    
C22   C34   A    
C100  C101  S    
C111  H93   S    
C81   O23   A    
O30   C100  S    
C41   O29   S    
C86   C88   S    
C67   O17   A    
O29   C97   S    
C97   C98   S    
C14   C20   S    
C120  H114  S    
C1    O7    A    
C18   C67   S    
C45   O15   A    
C72   C74   A    
C109  H87   S    
O13   Zn1   S    
C58   C81   S    
O23   Zn5   S    
C116  H104  S    
C13   C19   S    
C103  H73   S    
C117  H105  S    
C6    C8    S    
C55   H23   S    
C28   C39   S    
C61   C73   A    
C113  H96   S    
C94   H52   S    
C61   H27   S    
C75   O31   S    
C22   H4    S    
C32   H10   S    
O10   Zn6   S    
C51   C53   A    
C32   C34   A    
C37   C39   A    
C115  H102  S    
C98   H62   S    
C28   C30   A    
C68   O18   A    
C119  C120  S    
C116  C117  S    
C9    C11   S    
C70   H32   S    
C50   C52   A    
C102  H70   S    
C117  H106  S    
C69   H31   S    
C27   C40   S    
C85   C90   S    
C74   H26   S    
C5    H37   S    
C99   H65   S    
C31   C33   A    
C106  H80   S    
O1    Zn5   S    
C77   C79   A    
C83   O25   A    
C110  H90   S    
C55   C57   A    
C7    H35   S    
O5    Zn7   S    
C48   C50   A    
C75   C77   A    
C4    O34   S    
C45   C78   S    
C92   H48   S    
C10   C12   S    
O4    Zn2   S    
C1    C38   S    
C16   C18   S    
C93   H49   S    
C46   O16   A    
C88   C90   S    
C70   C72   A    
O7    Zn3   S    
C118  H109  S    
C24   O14   A    
C25   C27   A    
C2    O8    A    
C14   C16   S    
C3    C85   S    
C42   O30   S    
C115  C116  S    
C19   H43   S    
C84   C89   S    
C17   C19   S    
C36   C38   A    
C107  C108  S    
O26   Zn2   S    
C4    C86   S    
O16   Zn4   S    
O28   C94   S    
O24   Zn6   S    
C48   C59   S    
C5    C7    S    
O11   Zn7   S    
C92   C93   S    
C71   H33   S    
C35   C40   A    
C7    C9    S    
C83   C90   S    
C21   C25   A    
O34   C112  S    
C17   C68   S    
C51   H21   S    
C94   C95   S    
C86   H20   S    
C3    C88   S    
C101  H68   S    
O1    Zn3   S    
C36   C39   A    
C43   C47   A    
C35   H11   S    
C86   C89   S    
C64   H30   S    
C46   C77   S    
O18   Zn6   S    
C112  H94   S    
C95   C96   S    
C9    C24   S    
C25   H5    S    
C44   H16   S    
C10   C23   S    
C47   C49   A    
O2    Zn8   S    
C30   H8    S    
C26   C28   A    
C21   H3    S    
C73   H25   S    
C56   C59   A    
C29   H7    S    
C105  H78   S    
C3    C89   S    
O14   Zn2   S    
C97   H59   S    
C14   O36   S    
C114  H100  S    
C13   C15   S    
C115  H101  S    
C104  H75   S    
C103  H74   S    
C6    H38   S    
C35   C37   A    
C29   C31   A    
C44   C48   A    
O17   Zn5   S    
C42   C54   A    
C23   O13   A    
O3    Zn1   S    
C84   O22   A    
C101  C102  S    
C114  H98   S    
C91   H46   S    
C53   H13   S    
C8    C11   S    
O31   C103  S    
C111  H91   S    
C93   H50   S    
C102  H71   S    
C97   H60   S    
C56   C58   A    
C95   H55   S    
C110  C111  S    
C101  H69   S    
C103  C104  S    
C104  H76   S    
C16   H42   S    
C34   H2    S    
C96   H57   S    
C68   O6    A    
C8    C10   S    
C108  H85   S    
C107  H82   S    
C98   H61   S    
C82   O20   A    
C56   H24   S    
C5    C10   S    
C15   H41   S    
C66   C70   A    
C96   H56   S    
C119  H111  S    
C63   H29   S    
C114  H99   S    
C118  C119  S    
C71   C73   A    
C108  H84   S    
C65   C80   S    
C24   O10   A    
O22   Zn8   S    
C83   O21   A    
C62   C74   A    
O20   Zn4   S    
C99   H64   S    
C20   H44   S    
C15   C17   S    
C113  H97   S    
C91   C92   S    
C109  C110  S    
C62   H28   S    
C8    H36   S    
C94   H53   S    
C64   C66   A    
O36   C118  S    
C61   C63   A    
C33   H1    S    
C16   C19   S    
