data_str_m2_o4_o9_f0_pcu.sym.24
_audit_creation_date              2012-10-26T19:00:09-0400
_audit_creation_method            fapswitch 2.2
_symmetry_space_group_name_H-M    P1
_symmetry_Int_Tables_number       1
_space_group_crystal_system       triclinic
_cell_length_a                    10.834451
_cell_length_b                    10.831909
_cell_length_c                    9.541774
_cell_angle_alpha                 90.857705
_cell_angle_beta                  90.609887
_cell_angle_gamma                 89.806526
_cell_volume                      1119.60678592

loop_
_atom_site_label
_atom_site_type_symbol
_atom_type_description
_atom_site_fract_x
_atom_site_fract_y
_atom_site_fract_z
_atom_type_partial_charge
C1    C     C_R   0.497181 0.262554 0.498861 0.556647
C2    C     C_R   0.843777 0.275488 0.937810 0.376475
C3    C     C_R   0.788942 0.167449 0.885951 -0.060659
C4    C     C_R   0.262231 0.501975 0.499140 0.538108
C5    C     C_R   0.782715 0.144607 0.741564 -0.173997
C6    C     C_R   0.828845 0.230909 0.647835 -0.004662
C7    C     C_R   0.883418 0.341121 0.699808 -0.017831
C8    C     C_R   0.434646 0.066183 0.605204 -0.087786
C9    C     C_R   0.485878 0.129861 0.494209 -0.006097
C10   C     C_R   0.521240 0.062817 0.373957 -0.136332
C11   C     C_R   0.523454 0.934163 0.375890 -0.152107
C12   C     C_R   0.238530 0.676467 0.017369 -0.061623
C13   C     C_R   0.490707 0.871318 0.498145 -0.008490
C14   C     C_R   0.437528 0.939208 0.607604 0.075902
C15   C     C_3   0.455761 0.940226 0.763045 0.707524
C16   C     C_R   0.498882 0.737822 0.500543 0.565667
C17   C     C_3   0.449283 0.080203 0.760089 -0.166781
C18   C     C_R   0.556976 0.592520 0.075837 0.215805
C19   C     C_R   0.434411 0.415265 0.072227 -0.008216
C20   C     C_R   0.434366 0.415299 0.923340 -0.022301
C21   C     C_R   0.555933 0.593273 0.928295 0.162277
C22   C     C_3   0.688685 0.627772 0.922925 -0.192087
C23   C     C_R   0.931533 0.557175 0.394809 -0.117669
C24   C     C_3   0.690905 0.623649 0.081497 0.218351
C25   C     C_R   0.737597 0.497028 0.500703 0.562833
C26   C     C_R   0.253447 0.745204 0.141705 -0.062328
C27   C     C_R   0.191790 0.710081 0.262858 -0.052134
C28   C     C_R   0.116047 0.605050 0.259644 0.052729
C29   C     C_R   0.099605 0.538476 0.133456 -0.095286
C30   C     C_R   0.160800 0.574183 0.012869 -0.132317
C31   C     C_1   0.823777 0.202243 0.499612 0.204822
C32   C     C_R   0.871428 0.495152 0.501543 0.017913
C33   C     C_R   0.940020 0.431137 0.604025 -0.021700
C34   C     C_R   0.067909 0.441089 0.604798 -0.139576
C35   C     C_R   0.128148 0.503153 0.497706 0.007720
C36   C     C_R   0.059266 0.557887 0.388336 -0.027395
C37   C     C_R   0.892774 0.360797 0.845320 -0.098341
Cu1   Cu    Cu3+1 0.499990 0.499980 0.640670 0.975646
Cu2   Cu    Cu3+1 0.500010 0.500020 0.359330 1.004563
F1    F     F_    0.357971 0.889114 0.832685 -0.650810
F2    F     F_    0.569726 0.895734 0.805198 -0.645601
F3    F     F_    0.711335 0.738519 0.142536 -0.635103
F4    F     F_    0.850258 0.297180 0.077987 -0.646053
H1    H     H_    0.288478 0.700268 0.924585 0.210385
H2    H     H_    0.382387 0.345896 0.865790 0.114603
H3    H     H_    0.746007 0.555287 0.873200 0.103123
H4    H     H_    0.702992 0.721535 0.881034 0.232309
H5    H     H_    0.750057 0.548728 0.123795 0.155116
H6    H     H_    0.205820 0.761997 0.359589 0.106998
H7    H     H_    0.042332 0.456756 0.129834 0.168496
H8    H     H_    0.150445 0.520945 0.916652 0.110508
H9    H     H_    0.878841 0.603872 0.314326 0.171610
H10   H     H_    0.121139 0.392323 0.683585 0.122162
H11   H     H_    0.936753 0.443251 0.886852 0.106764
H12   H     H_    0.751912 0.100813 0.957609 0.182498
H13   H     H_    0.741996 0.059333 0.702739 0.168648
H14   H     H_    0.554210 0.109209 0.281842 0.171898
H15   H     H_    0.556759 0.884699 0.284344 0.216614
H16   H     H_    0.364629 0.118625 0.809263 0.123194
H17   H     H_    0.536105 0.126662 0.792621 0.128930
H18   H     H_    0.382741 0.345594 0.126284 0.130203
H19   H     H_    0.314307 0.824265 0.144776 0.153263
N1    N     N_R   0.500790 0.500930 0.147930 -0.258700
N2    N     N_R   0.500790 0.500890 0.852020 -0.252046
N3    N     N_1   0.819765 0.179327 0.380812 -0.209865
O1    O     O_R   0.500000 0.319640 0.618810 -0.516889
O2    O     O_R   0.500010 0.319680 0.381230 -0.503729
O3    O     O_R   0.319640 0.499990 0.618790 -0.516128
O4    O     O_R   0.319650 0.500030 0.381210 -0.501247
O5    O     O_R   0.499990 0.680320 0.618770 -0.449039
O6    O     O_R   0.500000 0.680360 0.381190 -0.497289
O7    O     O_R   0.680350 0.499970 0.618790 -0.508954
O8    O     O_R   0.680360 0.500010 0.381210 -0.483136

loop_
_geom_bond_atom_site_label_1
_geom_bond_atom_site_label_2
_ccdc_geom_bond_type
C30   H8    S    
Cu1   O5    S    
C18   C21   A    
C24   F3    S    
C5    H13   S    
C19   C20   A    
C26   C27   A    
C18   C24   S    
C28   C29   A    
C5    C6    A    
C18   N1    A    
C31   N3    T    
C34   C35   A    
C21   N2    A    
C3    H12   S    
Cu1   O1    S    
C19   N1    A    
C8    C9    A    
C11   H15   S    
C9    C10   A    
C20   H2    S    
C25   C32   S    
C22   H4    S    
C4    C35   S    
C13   C14   A    
C7    C33   S    
C16   O6    A    
C4    O4    A    
C1    O1    A    
Cu1   N2    S    
C29   H7    S    
C7    C37   A    
Cu1   O7    S    
C24   H5    S    
C10   H14   S    
C16   O5    A    
C15   F2    S    
C4    O3    A    
C12   C26   A    
C35   C36   A    
C20   N2    A    
C29   C30   A    
C2    F4    S    
C33   C34   A    
Cu2   O4    S    
C1    C9    S    
C25   O7    A    
C17   H16   S    
C37   H11   S    
C22   H3    S    
Cu1   O3    S    
C22   C24   S    
C15   C17   S    
C8    C14   A    
C12   C30   A    
Cu2   O2    S    
C3    C5    A    
C6    C7    A    
Cu2   N1    S    
C8    C17   S    
C32   C33   A    
C2    C3    A    
C26   H19   S    
C12   H1    S    
C23   C32   A    
C11   C13   A    
C2    C37   A    
C23   H9    S    
Cu1   Cu2   S    
C19   H18   S    
C1    O2    A    
C6    C31   S    
C25   O8    A    
Cu2   O8    S    
C15   F1    S    
C10   C11   A    
C17   H17   S    
C28   C36   S    
C34   H10   S    
C23   C36   A    
C13   C16   S    
C27   C28   A    
Cu2   O6    S    
C14   C15   S    
C21   C22   S    
C27   H6    S    
