data_str_m2_o5_o26_f0_pcu.sym.149
_audit_creation_date              2012-12-10T19:11:32-0500
_audit_creation_method            fapswitch 2.2
_symmetry_space_group_name_H-M    P1
_symmetry_Int_Tables_number       1
_space_group_crystal_system       triclinic
_cell_length_a                    7.781572
_cell_length_b                    9.085715
_cell_length_c                    17.388392
_cell_angle_alpha                 90.033853
_cell_angle_beta                  86.602676
_cell_angle_gamma                 89.989732
_cell_volume                      1227.21847429

loop_
_atom_site_label
_atom_site_type_symbol
_atom_type_description
_atom_site_fract_x
_atom_site_fract_y
_atom_site_fract_z
_atom_type_partial_charge
C1    C     C_R   0.499997 0.779963 0.499806 0.840729
C2    C     C_R   0.500014 0.220024 0.499852 0.841761
C3    C     C_1   0.499948 0.934594 0.499688 -0.173839
C4    C     C_1   0.499979 0.065367 0.499708 -0.177667
C5    C     C_R   0.478744 0.502257 0.650050 0.846861
C6    C     C_R   0.520844 0.501515 0.349620 0.812136
C7    C     C_R   0.467989 0.506665 0.733948 -0.143079
C8    C     C_R   0.528646 0.500433 0.265118 -0.166741
C9    C     C_R   0.595853 0.578689 0.774000 0.438831
C10   C     C_R   0.377696 0.515678 0.224840 0.461382
C11   C     C_R   0.576245 0.584421 0.854587 -0.307963
C12   C     C_R   0.386588 0.495648 0.145493 -0.292548
C13   C     C_R   0.437807 0.514320 0.894198 0.097080
C14   C     C_R   0.545047 0.478901 0.103625 0.090961
C15   C     C_R   0.312002 0.440082 0.854034 0.199438
C16   C     C_R   0.698266 0.473571 0.143453 0.195195
C17   C     C_R   0.328055 0.438236 0.773754 -0.329695
C18   C     C_R   0.687496 0.481219 0.224026 -0.310262
C19   C     C_2   0.425340 0.524844 0.977839 -0.206786
C20   C     C_2   0.547775 0.465257 0.019018 -0.211771
Cu1   Cu    Cu3+1 0.330920 0.500000 0.500000 1.001995
Cu2   Cu    Cu3+1 0.669080 0.500000 0.500000 1.015987
H1    H     H_    0.266963 0.492772 0.117256 0.149527
H2    H     H_    0.666413 0.645933 0.887102 0.150041
H3    H     H_    0.804236 0.471625 0.254689 0.199134
H4    H     H_    0.232339 0.381291 0.742009 0.167725
H5    H     H_    0.653131 0.406606 0.988825 0.163517
H6    H     H_    0.317711 0.586189 0.004087 0.140673
N1    N     N_1   0.923170 0.500000 0.500010 -0.046577
N2    N     N_1   0.076830 0.500000 0.499990 -0.051455
O1    O     O_R   0.357240 0.711600 0.500000 -0.596368
O2    O     O_R   0.642760 0.288400 0.500000 -0.579746
O3    O     O_R   0.642760 0.711600 0.500000 -0.571362
O4    O     O_R   0.357240 0.288400 0.500000 -0.579808
O5    O     O_R   0.340660 0.500000 0.613590 -0.604702
O6    O     O_R   0.659340 0.500000 0.386410 -0.595011
O7    O     O_R   0.626230 0.500000 0.613600 -0.549393
O8    O     O_R   0.373770 0.500000 0.386400 -0.540549
C21   C     C_3   0.163239 0.359395 0.894980 -0.406240
C22   C     C_3   0.221361 0.210556 0.924728 -0.826932
H7    H     H_    0.282408 0.144628 0.876715 0.252186
H8    H     H_    0.314916 0.225226 0.969881 0.260086
H9    H     H_    0.108267 0.149047 0.949861 0.236459
H10   H     H_    0.106130 0.426857 0.943199 0.191725
H11   H     H_    0.059014 0.339847 0.855131 0.191051
C23   C     C_3   0.874973 0.460908 0.102967 -0.425776
C24   C     C_3   0.935758 0.301275 0.100935 -0.822290
H12   H     H_    0.934914 0.255489 0.160187 0.264548
H13   H     H_    0.851069 0.233518 0.065823 0.245426
H14   H     H_    0.069289 0.295574 0.075111 0.247546
H15   H     H_    0.878321 0.506525 0.043763 0.182262
H16   H     H_    0.967318 0.528345 0.134065 0.198027
O9    O     O_3   0.723336 0.658019 0.732364 -0.602264
C25   C     C_3   0.887728 0.645721 0.762827 0.080044
H17   H     H_    0.981071 0.614282 0.714774 0.177789
H18   H     H_    0.897214 0.558056 0.807212 0.108359
C26   C     C_3   0.941661 0.795466 0.793963 -0.347923
H19   H     H_    0.950010 0.876608 0.746062 0.231633
H20   H     H_    0.843608 0.835489 0.838064 0.212432
C27   C     C_3   0.115474 0.787012 0.829870 -0.914616
H21   H     H_    0.108723 0.709306 0.879224 0.248533
H22   H     H_    0.150604 0.897346 0.851320 0.255016
H23   H     H_    0.216846 0.750666 0.786360 0.270379
O10   O     O_3   0.218547 0.537804 0.263331 -0.590737
C28   C     C_3   0.158875 0.682401 0.249583 0.027644
H24   H     H_    0.016079 0.680408 0.256182 0.162224
H25   H     H_    0.192356 0.722400 0.189916 0.117589
C29   C     C_3   0.224463 0.790644 0.308843 -0.322155
H26   H     H_    0.182178 0.753138 0.367750 0.251383
H27   H     H_    0.367423 0.794051 0.304000 0.192608
C30   C     C_3   0.155524 0.945649 0.296742 -0.900793
H28   H     H_    0.198289 0.986777 0.238566 0.254458
H29   H     H_    0.205265 0.020976 0.340577 0.266518
H30   H     H_    0.012603 0.946043 0.302877 0.256149

loop_
_geom_bond_atom_site_label_1
_geom_bond_atom_site_label_2
_ccdc_geom_bond_type
C30   H30   S    
C2    C4    S    
C6    O8    A    
C9    O9    S    
C7    C9    A    
C21   H10   S    
Cu1   O5    S    
C20   H5    S    
C5    O7    A    
Cu1   O1    S    
Cu1   N2    S    
C10   O10   S    
C24   H12   S    
C21   H11   S    
C28   C29   S    
O10   C28   S    
C2    O4    A    
C22   H8    S    
C1    O3    A    
C30   H28   S    
C24   H13   S    
C16   C18   A    
Cu1   Cu2   S    
C25   C26   S    
C23   H16   S    
C19   H6    S    
C9    C11   A    
C12   H1    S    
C15   C21   S    
C26   H19   S    
N1    N2    T    
C18   H3    S    
Cu2   O2    S    
C23   H15   S    
C29   C30   S    
C17   H4    S    
C10   C12   A    
C2    O2    A    
C27   H22   S    
C22   H7    S    
Cu2   N1    S    
C12   C14   A    
C24   H14   S    
C14   C16   A    
C13   C15   A    
C25   H18   S    
C26   H20   S    
C11   C13   A    
C27   H23   S    
C13   C19   S    
C3    C4    T    
C5    O5    A    
C11   H2    S    
C1    O1    A    
Cu2   O6    S    
C14   C20   S    
C15   C17   A    
C28   H24   S    
C23   C24   S    
C16   C23   S    
C21   C22   S    
C5    C7    S    
Cu2   O3    S    
C25   H17   S    
C29   H26   S    
C26   C27   S    
C6    C8    S    
Cu1   O4    S    
C1    C3    S    
O9    C25   S    
C29   H27   S    
C30   H29   S    
Cu2   O7    S    
C8    C10   A    
C8    C18   A    
Cu1   O8    S    
C19   C20   D    
C6    O6    A    
C27   H21   S    
C28   H25   S    
C22   H9    S    
C7    C17   A    
