data_str_m2_o4_o4_f0_pcu.sym.80
_audit_creation_date              2013-03-05T16:33:33-0500
_audit_creation_method            fapswitch 2.2
_symmetry_space_group_name_H-M    P1
_symmetry_Int_Tables_number       1
_space_group_crystal_system       triclinic
_cell_length_a                    10.81062
_cell_length_b                    10.868153
_cell_length_c                    9.594213
_cell_angle_alpha                 90.908696
_cell_angle_beta                  90.706342
_cell_angle_gamma                 91.723777
_cell_volume                      1126.49392307

loop_
_atom_site_label
_atom_site_type_symbol
_atom_site_description
_atom_site_fract_x
_atom_site_fract_y
_atom_site_fract_z
_atom_type_partial_charge
O1    O     O_R   0.500000 0.319640 0.618810 -0.586343
O2    O     O_R   0.500010 0.319680 0.381230 -0.589025
C1    C     C_R   0.495054 0.262560 0.498905 0.809020
O3    O     O_R   0.319650 0.499970 0.618810 -0.589574
O4    O     O_R   0.319660 0.500010 0.381230 -0.600784
C2    C     C_R   0.262148 0.497792 0.499102 0.801813
Cu1   Cu    Cu3+1 0.499990 0.499980 0.640670 1.017503
Cu2   Cu    Cu3+1 0.500010 0.500020 0.359330 1.039274
O5    O     O_R   0.499990 0.680320 0.618770 -0.594039
O6    O     O_R   0.500000 0.680360 0.381190 -0.571401
O7    O     O_R   0.680340 0.499990 0.618770 -0.534595
O8    O     O_R   0.680350 0.500030 0.381190 -0.496403
C3    C     C_R   0.496293 0.737726 0.500413 0.839406
C4    C     C_R   0.736408 0.485073 0.499894 0.918292
C5    C     C_R   0.064877 0.482182 0.622930 0.150928
C6    C     C_R   0.127781 0.489802 0.497341 -0.165476
C7    C     C_R   0.062356 0.467606 0.371983 -0.247579
C8    C     C_R   0.934201 0.443722 0.372101 0.351004
C9    C     C_R   0.869260 0.460226 0.498498 -0.245220
C10   C     C_R   0.936317 0.466302 0.624094 0.174180
C11   C     C_3   0.949116 0.360942 0.722994 -0.301916
C12   C     C_3   0.086193 0.385223 0.727405 -0.497392
H1    H     H_    0.908158 0.376236 0.825989 0.302737
H2    H     H_    0.922853 0.270381 0.673917 0.235931
H3    H     H_    0.120836 0.424900 0.828616 0.233231
H4    H     H_    0.139589 0.306848 0.686292 0.193372
C13   C     C_R   0.468112 0.065794 0.621382 -0.006812
C14   C     C_R   0.478780 0.129494 0.496799 -0.039941
C15   C     C_R   0.470835 0.062011 0.370577 -0.162651
H5    H     H_    0.471010 0.108032 0.271277 0.160652
C16   C     C_R   0.471294 0.933303 0.371754 -0.152928
H6    H     H_    0.470185 0.883774 0.273101 0.152698
C17   C     C_R   0.481164 0.870808 0.498935 -0.044066
C18   C     C_R   0.470092 0.938848 0.622332 0.050770
C19   C     C_3   0.546790 0.938869 0.752250 -0.502922
C20   C     C_3   0.540938 0.077838 0.754831 0.201991
H7    H     H_    0.641001 0.906156 0.730229 0.239568
C21   C     C_R   0.525918 0.606475 0.075514 0.090032
N1    N     N_R   0.500790 0.500930 0.147930 -0.160312
C22   C     C_R   0.457363 0.400534 0.071878 0.014529
H8    H     H_    0.424729 0.318967 0.124806 0.114012
C23   C     C_R   0.455520 0.401325 0.923429 0.034053
H9    H     H_    0.419805 0.321102 0.866723 0.106771
N2    N     N_R   0.500790 0.500890 0.852020 -0.155960
C24   C     C_R   0.532073 0.603740 0.928981 0.064568
C25   C     C_3   0.652701 0.674801 0.930155 0.074131
C26   C     C_3   0.633177 0.698842 0.086081 0.087378
H10   H     H_    0.653911 0.758415 0.869013 0.083758
H11   H     H_    0.112310 0.459609 0.275286 0.203925
H12   H     H_    0.486685 0.114449 0.843155 0.082303
N3    N     N_R   0.662581 0.138888 0.740204 0.149305
O9    O     O_R   0.735174 0.110178 0.638136 -0.364915
O10   O     O_R   0.700034 0.220915 0.832650 -0.320433
N4    N     N_R   0.754794 0.595320 0.896587 0.200796
O11   O     O_R   0.852794 0.641702 0.837367 -0.339432
O12   O     O_R   0.754208 0.482372 0.939567 -0.269392
N5    N     N_R   0.734927 0.675080 0.184459 0.197462
O13   O     O_R   0.732455 0.731253 0.305031 -0.357067
O14   O     O_R   0.842927 0.643298 0.140990 -0.258335
H13   H     H_    0.598313 0.793077 0.103652 0.062430
N6    N     N_R   0.875099 0.390615 0.248759 0.179550
O15   O     O_R   0.783838 0.310735 0.260700 -0.316471
O16   O     O_R   0.930423 0.397391 0.129281 -0.301932
H14   H     H_    0.496587 0.895429 0.840060 0.155943

loop_
_geom_bond_atom_site_label_1
_geom_bond_atom_site_label_2
_geom_bond_distance
_ccdc_geom_bond_type
O4    Cu2   1.963555 S    
C16   C17   1.410325 A    
C8    N6    1.441955 S    
C3    C17   1.460729 S    
C15   H5    1.083009 S    
Cu2   N1    2.028517 S    
C13   C20   1.496623 S    
C26   N5    1.471989 S    
N4    O11   1.300437 A    
C16   H6    1.081172 S    
Cu2   O8    1.958260 S    
N6    O15   1.301764 A    
C9    C10   1.398197 A    
C22   C23   1.424302 A    
C7    C8    1.401865 A    
N5    O13   1.300365 A    
C20   H12   1.111751 S    
Cu1   Cu2   2.699245 S    
C15   C16   1.399200 A    
O1    Cu1   1.967845 S    
Cu1   N2    2.027515 S    
C10   C11   1.507129 S    
Cu1   O7    1.963555 S    
C25   N4    1.457844 S    
C21   C26   1.512079 S    
C19   H14   1.111601 S    
C20   N3    1.464325 S    
C23   N2    1.371037 A    
O3    Cu1   1.958260 S    
O4    C2    1.297443 A    
O3    C2    1.298724 A    
C1    C14   1.451368 S    
C19   H7    1.110426 S    
O8    C4    1.298271 A    
C17   C18   1.394205 A    
O2    C1    1.297926 A    
C11   H1    1.100058 S    
C13   C18   1.380648 A    
C5    C10   1.395525 A    
Cu2   O6    1.967845 S    
O7    C4    1.308263 A    
N4    O12   1.300992 A    
N5    O14   1.299263 A    
C23   H9    1.079230 S    
C5    C12   1.486829 S    
C2    C6    1.452447 S    
N3    O9    1.302369 A    
C14   C15   1.406156 A    
C25   H10   1.089241 S    
C24   C25   1.495299 S    
C13   C14   1.395031 A    
C21   N1    1.372402 A    
N2    C24   1.361603 A    
Cu1   O5    1.974504 S    
C18   C19   1.488516 S    
C12   H4    1.113050 S    
C11   H2    1.111851 S    
C7    H11   1.082819 S    
N1    C22   1.370708 A    
N6    O16   1.301553 A    
O5    C3    1.305045 A    
C25   C26   1.532809 S    
C8    C9    1.420319 A    
C21   C24   1.408151 A    
C22   H8    1.080766 S    
N3    O10   1.299889 A    
C26   H13   1.112960 S    
C11   C12   1.497331 S    
C4    C9    1.469525 S    
C12   H3    1.112273 S    
C5    C6    1.393243 A    
O2    Cu2   1.974502 S    
C19   C20   1.513384 S    
C6    C7    1.401614 A    
O1    C1    1.298061 A    
O6    C3    1.295653 A    
