data_str_m2_o1_o24_f0_pcu.sym.51
_audit_creation_date              2013-03-05T16:05:30-0500
_audit_creation_method            fapswitch 2.2
_symmetry_space_group_name_H-M    P1
_symmetry_Int_Tables_number       1
_space_group_crystal_system       triclinic
_cell_length_a                    10.830633
_cell_length_b                    9.526477
_cell_length_c                    10.659286
_cell_angle_alpha                 90.18348
_cell_angle_beta                  90.182454
_cell_angle_gamma                 89.984877
_cell_volume                      1099.79017419

loop_
_atom_site_label
_atom_site_type_symbol
_atom_site_description
_atom_site_fract_x
_atom_site_fract_y
_atom_site_fract_z
_atom_type_partial_charge
O1    O     O_R   0.319640 0.618740 0.499990 -0.600655
O2    O     O_R   0.680360 0.381260 0.500010 -0.600655
O3    O     O_R   0.680360 0.618740 0.500010 -0.576547
O4    O     O_R   0.319640 0.381260 0.499990 -0.576547
C1    C     C_R   0.871769 0.499985 0.500158 -0.008237
C2    C     C_R   0.128231 0.500015 0.499842 -0.008237
C3    C     C_R   0.262086 0.500014 0.499801 0.827692
C4    C     C_R   0.737914 0.499986 0.500198 0.827692
O5    O     O_R   0.499970 0.618770 0.316850 -0.565520
O6    O     O_R   0.500030 0.381230 0.683150 -0.565520
O7    O     O_R   0.500030 0.618770 0.683150 -0.591723
O8    O     O_R   0.499970 0.381230 0.316850 -0.591723
C5    C     C_R   0.500746 0.499728 0.259482 0.879929
C6    C     C_R   0.499254 0.500272 0.740518 0.879929
Cu1   Cu    Cu3+1 0.500000 0.640660 0.500000 0.987895
Cu2   Cu    Cu3+1 0.500000 0.359340 0.500000 0.987895
H1    H     H_    0.361707 0.129971 0.359449 0.128034
H2    H     H_    0.638293 0.870029 0.640551 0.128034
H3    H     H_    0.638325 0.130872 0.640525 0.122393
H4    H     H_    0.361675 0.869128 0.359475 0.122393
N1    N     N_R   0.500000 0.852070 0.500000 -0.164063
N2    N     N_R   0.500000 0.147930 0.500000 -0.164063
C7    C     C_3   0.403407 0.575877 0.043529 -0.271146
C8    C     C_3   0.596593 0.424123 0.956471 -0.271146
C9    C     C_3   0.508563 0.634114 0.958997 -0.242779
C10   C     C_3   0.491437 0.365886 0.041002 -0.242778
C11   C     C_3   0.396169 0.444166 0.960299 0.405129
C12   C     C_3   0.603831 0.555834 0.039701 0.405129
C13   C     C_3   0.498742 0.500861 0.876833 -0.133171
C14   C     C_3   0.501258 0.499139 0.123167 -0.133170
C15   C     C_R   0.423223 0.074141 0.421979 -0.009120
C16   C     C_R   0.576776 0.925859 0.578021 -0.009120
C17   C     C_R   0.576784 0.074643 0.578013 -0.001996
C18   C     C_R   0.423216 0.925357 0.421986 -0.001996
C19   C     C_R   0.063913 0.372513 0.503391 -0.112961
C20   C     C_R   0.936086 0.627486 0.496609 -0.112961
C21   C     C_R   0.936188 0.372500 0.503560 -0.164658
C22   C     C_R   0.063812 0.627500 0.496440 -0.164658
H5    H     H_    0.111998 0.272844 0.506189 0.159321
H6    H     H_    0.888002 0.727156 0.493811 0.159321
H7    H     H_    0.888187 0.272823 0.506474 0.154092
H8    H     H_    0.111813 0.727177 0.493526 0.154092
N3    N     N_R   0.279864 0.382487 0.918602 0.128099
O9    O     O_R   0.201529 0.336728 0.001112 -0.341277
O10   O     O_R   0.252011 0.376021 0.799999 -0.367315
N4    N     N_R   0.720136 0.617513 0.081397 0.128099
O11   O     O_R   0.798470 0.663271 0.998888 -0.341277
O12   O     O_R   0.747989 0.623979 0.200001 -0.367315
H9    H     H_    0.323433 0.635817 0.080582 0.178995
H10   H     H_    0.676567 0.364183 0.919417 0.178995
H11   H     H_    0.517582 0.743502 0.924573 0.179588
H12   H     H_    0.482418 0.256498 0.075427 0.179588

loop_
_geom_bond_atom_site_label_1
_geom_bond_atom_site_label_2
_geom_bond_distance
_ccdc_geom_bond_type
O4    Cu2   1.964488 S    
C1    C4    1.449731 S    
C19   H5    1.083269 S    
N3    O9    1.300287 A    
C2    C22   1.400985 A    
C10   C14   1.543431 S    
C2    C3    1.449731 S    
O1    Cu1   1.964597 S    
C1    C21   1.400985 A    
C11   C13   1.525481 S    
O2    Cu2   1.964596 S    
C7    C14   1.541438 S    
C9    H11   1.110336 S    
C20   H6    1.083269 S    
H4    C18   1.081793 S    
C16   C17   1.417387 A    
C12   C14   1.525481 S    
O5    Cu1   1.962690 S    
C15   C18   1.417387 A    
O6    Cu2   1.962689 S    
C2    C19   1.401050 A    
C9    C12   1.535845 S    
C8    H10   1.110304 S    
N3    O10   1.300057 A    
C12   N4    1.457631 S    
C10   C11   1.535845 S    
O4    C3    1.291530 A    
C20   C22   1.383351 A    
O7    C6    1.285615 A    
C8    C10   1.557839 S    
C22   H8    1.083270 S    
C7    C11   1.536255 S    
C7    C9    1.557840 S    
C21   H7    1.083270 S    
H1    C15   1.081801 S    
N1    C16   1.367253 A    
N4    O12   1.300057 A    
C7    H9    1.110304 S    
H2    C16   1.081801 S    
N2    C15   1.367254 A    
C6    C13   1.453040 S    
Cu1   Cu2   2.679989 S    
C1    C20   1.401050 A    
C11   N3    1.457631 S    
C5    C14   1.453040 S    
Cu1   N1    2.013993 S    
O3    Cu1   1.964487 S    
O8    C5    1.285615 A    
C9    C13   1.543431 S    
O3    C4    1.291530 A    
H3    C17   1.081793 S    
O6    C6    1.286729 A    
N2    C17   1.367310 A    
O5    C5    1.286729 A    
C8    C13   1.541439 S    
O1    C3    1.291578 A    
Cu2   N2    2.013993 S    
N1    C18   1.367311 A    
C19   C21   1.383351 A    
N4    O11   1.300287 A    
O7    Cu1   1.964017 S    
C10   H12   1.110336 S    
O2    C4    1.291578 A    
O8    Cu2   1.964018 S    
C8    C12   1.536254 S    
