data_str_m2_o1_o13_f0_pcu.sym.187
_audit_creation_date              2013-03-05T16:03:59-0500
_audit_creation_method            fapswitch 2.2
_symmetry_space_group_name_H-M    P1
_symmetry_Int_Tables_number       1
_space_group_crystal_system       triclinic
_cell_length_a                    12.816781
_cell_length_b                    10.752877
_cell_length_c                    9.623781
_cell_angle_alpha                 88.965862
_cell_angle_beta                  96.329664
_cell_angle_gamma                 91.87233
_cell_volume                      1317.39484972

loop_
_atom_site_label
_atom_site_type_symbol
_atom_site_description
_atom_site_fract_x
_atom_site_fract_y
_atom_site_fract_z
_atom_type_partial_charge
O1    O     O_R   0.499990 0.319660 0.618740 -0.580546
O2    O     O_R   0.500010 0.680340 0.381260 -0.580912
O3    O     O_R   0.499990 0.319630 0.381170 -0.580472
O4    O     O_R   0.500010 0.680370 0.618830 -0.581248
C1    C     C_R   0.496156 0.262599 0.500329 0.755655
C2    C     C_R   0.504498 0.737397 0.499738 0.757785
O5    O     O_R   0.349000 0.499990 0.599490 -0.592498
O6    O     O_R   0.651000 0.500010 0.400510 -0.581045
O7    O     O_R   0.348990 0.499960 0.361920 -0.599083
O8    O     O_R   0.651010 0.500040 0.638080 -0.596579
C3    C     C_R   0.301011 0.514576 0.472297 0.787351
C4    C     C_R   0.699128 0.485946 0.527524 0.798519
Cu1   Cu    Cu3+1 0.500000 0.500020 0.640660 0.916781
Cu2   Cu    Cu3+1 0.500000 0.499980 0.359340 0.919562
C5    C     C_R   0.813549 0.464156 0.548042 -0.145256
C6    C     C_R   0.187189 0.540089 0.451145 -0.097179
C7    C     C_R   0.020383 0.508434 0.310225 -0.025261
C8    C     C_R   0.978132 0.510706 0.688512 0.032616
C9    C     C_R   0.128661 0.540515 0.317758 0.046183
C10   C     C_R   0.872091 0.468760 0.680944 0.111594
C11   C     C_R   0.133895 0.570689 0.565138 0.067497
C12   C     C_R   0.867806 0.439608 0.433286 0.123894
C13   C     C_R   0.027887 0.526778 0.564262 -0.057377
C14   C     C_R   0.972499 0.487379 0.435065 0.011751
C15   C     C_R   0.424391 0.059779 0.405887 0.025159
C16   C     C_R   0.576615 0.940260 0.594049 0.011446
C17   C     C_R   0.432724 0.931117 0.404779 -0.176615
C18   C     C_R   0.568461 0.069015 0.594924 -0.174520
H1    H     H_    0.378602 0.875867 0.334391 0.174929
H2    H     H_    0.622628 0.124362 0.665164 0.177290
C19   C     C_R   0.506816 0.871671 0.498443 -0.144404
C20   C     C_R   0.494142 0.128378 0.501516 -0.145412
C21   C     C_R   0.439949 0.416101 0.069441 -0.075275
C22   C     C_R   0.559950 0.583981 0.930537 -0.059490
H3    H     H_    0.391628 0.349795 0.121682 0.146568
H4    H     H_    0.607882 0.650717 0.878272 0.149996
C23   C     C_R   0.439420 0.414196 0.921773 0.252278
C24   C     C_R   0.560097 0.586205 0.078103 0.249356
N1    N     N_R   0.500030 0.500030 0.852080 -0.195400
N2    N     N_R   0.499970 0.499970 0.147920 -0.194804
C25   C     C_3   0.821673 0.342286 0.327506 -0.352556
C26   C     C_3   0.782251 0.223806 0.398312 -0.816928
H5    H     H_    0.846199 0.184638 0.471893 0.253152
H6    H     H_    0.714685 0.242742 0.456343 0.242664
H7    H     H_    0.756086 0.153301 0.317888 0.247476
H8    H     H_    0.757180 0.381251 0.254987 0.247807
H9    H     H_    0.882289 0.310253 0.263799 0.184294
C27   C     C_3   0.183041 0.670571 0.665796 -0.381246
C28   C     C_3   0.227698 0.783325 0.590015 -0.784545
H10   H     H_    0.292273 0.756961 0.530442 0.238898
H11   H     H_    0.165012 0.825686 0.517067 0.252255
H12   H     H_    0.259320 0.854155 0.667481 0.240673
H13   H     H_    0.123456 0.711300 0.724586 0.239131
H14   H     H_    0.244913 0.630736 0.741929 0.216079
C29   C     C_3   0.828963 0.409007 0.809418 -0.365067
C30   C     C_3   0.886444 0.290436 0.857313 -0.843722
H15   H     H_    0.878362 0.221963 0.771370 0.270772
H16   H     H_    0.971006 0.309018 0.889810 0.235051
H17   H     H_    0.851081 0.248347 0.948154 0.252542
H18   H     H_    0.833219 0.476595 0.895479 0.258346
H19   H     H_    0.746195 0.376790 0.789356 0.230081
C31   C     C_3   0.173118 0.601276 0.190770 -0.415012
C32   C     C_3   0.133135 0.733085 0.164046 -0.672730
H20   H     H_    0.046231 0.734231 0.148385 0.294877
H21   H     H_    0.161520 0.793131 0.253978 0.237494
H22   H     H_    0.163824 0.773207 0.068867 0.247982
H23   H     H_    0.259002 0.613844 0.200692 0.234803
H24   H     H_    0.153249 0.542773 0.097672 0.195696
C33   C     C_2   0.957131 0.507271 0.172431 0.370632
H25   H     H_    0.982276 0.453097 0.089366 0.093275
O9    O     O_2   0.876968 0.566198 0.151925 -0.567721
C34   C     C_2   0.035966 0.533694 0.826674 0.282730
H26   H     H_    0.109021 0.487509 0.858040 0.039990
O10   O     O_2   0.005146 0.611735 0.901604 -0.548075
C35   C     C_2   0.339676 0.119688 0.312281 0.317093
H27   H     H_    0.321451 0.216213 0.325591 0.077693
O11   O     O_2   0.287916 0.061193 0.219672 -0.568736
C36   C     C_2   0.661123 0.880199 0.687889 0.337755
H28   H     H_    0.678596 0.783279 0.675428 0.085697
O12   O     O_2   0.713633 0.939021 0.779685 -0.549573
C37   C     C_3   0.369508 0.313066 0.849723 -0.397462
C38   C     C_3   0.415646 0.184616 0.879447 -0.780833
H29   H     H_    0.497444 0.183607 0.851833 0.265324
H30   H     H_    0.415785 0.158832 0.991719 0.259360
H31   H     H_    0.367527 0.113673 0.816421 0.242191
H32   H     H_    0.291012 0.313869 0.888760 0.163005
H33   H     H_    0.353338 0.326151 0.736827 0.256912
C39   C     C_3   0.627545 0.689515 0.149686 -0.356589
C40   C     C_3   0.576871 0.815711 0.121995 -0.805575
H34   H     H_    0.494744 0.811966 0.148616 0.266008
H35   H     H_    0.622212 0.887846 0.186543 0.250585
H36   H     H_    0.576384 0.843303 0.010150 0.257817
H37   H     H_    0.646298 0.675133 0.262206 0.258352
H38   H     H_    0.705068 0.693624 0.108061 0.229045

loop_
_geom_bond_atom_site_label_1
_geom_bond_atom_site_label_2
_geom_bond_distance
_ccdc_geom_bond_type
C29   C30   1.531687 S    
C32   H21   1.110712 S    
C7    C33   1.476076 S    
C6    C11   1.404029 A    
C17   H1    1.084883 S    
C25   C26   1.531409 S    
O7    Cu2   1.938350 S    
C37   C38   1.530048 S    
O5    C3    1.317052 A    
C16   C36   1.488218 S    
C31   H23   1.098465 S    
O1    C1    1.299379 A    
C36   O12   1.222583 D    
C12   C25   1.531791 S    
C9    C31   1.531499 S    
C30   H15   1.111320 S    
O4    Cu1   1.946853 S    
C33   O9    1.220405 D    
C21   H3    1.082371 S    
C5    C12   1.401709 A    
C28   H11   1.110781 S    
C25   H8    1.109390 S    
C40   H35   1.110673 S    
C8    C10   1.412523 A    
C37   H32   1.112389 S    
C1    C20   1.442522 S    
C15   C20   1.410776 A    
C2    C19   1.443022 S    
C32   H22   1.110840 S    
C16   C19   1.410923 A    
Cu1   Cu2   2.707370 S    
C23   C37   1.514198 S    
O2    C2    1.299337 A    
C26   H6    1.107036 S    
C10   C29   1.531624 S    
C8    C34   1.470055 S    
C27   H13   1.105081 S    
C39   H38   1.110814 S    
C7    C14   1.419520 A    
C17   C19   1.397508 A    
C8    C13   1.421194 A    
C21   N2    1.351536 A    
C18   C20   1.397515 A    
O4    C2    1.296062 A    
C36   H28   1.084590 S    
C21   C23   1.420906 A    
C22   N1    1.351387 A    
C24   C39   1.513103 S    
C5    C10   1.410531 A    
C15   C35   1.488109 S    
C26   H7    1.110681 S    
C27   H14   1.109905 S    
C35   H27   1.084202 S    
C31   C32   1.530627 S    
C35   O11   1.221740 D    
C3    C6    1.484436 S    
C4    C5    1.483729 S    
O6    C4    1.315556 A    
C28   H12   1.110783 S    
C25   H9    1.108265 S    
C40   H36   1.110743 S    
O7    C3    1.299071 A    
C37   H33   1.090845 S    
O3    Cu2   1.946852 S    
O8    C4    1.300748 A    
C34   O10   1.219237 D    
C27   C28   1.531089 S    
C38   H29   1.110018 S    
C38   H30   1.110448 S    
C11   C13   1.422934 A    
C12   C14   1.419464 A    
O1    Cu1   1.954603 S    
C26   H5    1.111039 S    
C39   H37   1.092383 S    
O6    Cu2   1.932197 S    
C22   C24   1.420573 A    
C34   H26   1.084950 S    
O3    C1    1.295617 A    
O8    Cu1   1.938350 S    
C15   C17   1.391407 A    
C38   H31   1.110707 S    
C16   C18   1.392077 A    
C30   H17   1.110950 S    
C31   H24   1.105842 S    
C11   C27   1.532155 S    
C18   H2    1.084965 S    
C23   N1    1.396727 A    
C24   N2    1.396481 A    
C6    C9    1.413601 A    
C29   H19   1.102662 S    
C7    C9    1.413360 A    
C30   H16   1.107144 S    
C22   H4    1.082429 S    
C33   H25   1.080797 S    
O2    Cu2   1.954604 S    
Cu1   N1    2.034619 S    
C13   C14   1.426227 A    
Cu2   N2    2.034619 S    
C32   H20   1.107838 S    
O5    Cu1   1.932199 S    
C39   C40   1.529888 S    
C28   H10   1.104478 S    
C40   H34   1.109749 S    
C29   H18   1.107386 S    
