data_str_m2_o1_o22_f0_pcu.sym.78
_audit_creation_date              2012-12-10T17:59:18-0500
_audit_creation_method            fapswitch 2.2
_symmetry_space_group_name_H-M    P1
_symmetry_Int_Tables_number       1
_space_group_crystal_system       triclinic
_cell_length_a                    10.706553
_cell_length_b                    9.769443
_cell_length_c                    10.758337
_cell_angle_alpha                 89.992464
_cell_angle_beta                  95.814499
_cell_angle_gamma                 89.989107
_cell_volume                      1119.50087766

loop_
_atom_site_label
_atom_site_type_symbol
_atom_type_description
_atom_site_fract_x
_atom_site_fract_y
_atom_site_fract_z
_atom_type_partial_charge
C1    C     C_R   0.263040 0.500011 0.499592 0.775504
C2    C     C_R   0.404477 0.926306 0.436083 0.028018
C3    C     C_R   0.593179 0.926143 0.567691 0.027732
C4    C     C_R   0.593147 0.073798 0.567735 0.027727
C5    C     C_R   0.499126 0.500004 0.260116 0.738620
C6    C     C_R   0.737008 0.499991 0.500751 0.781770
C7    C     C_R   0.497441 0.499996 0.739057 0.741448
C8    C     C_3   0.430526 0.627952 0.063516 -0.380985
C9    C     C_3   0.430602 0.372029 0.063553 -0.381018
C10   C     C_3   0.425882 0.627274 0.920450 -0.385974
C11   C     C_3   0.425982 0.372692 0.920492 -0.385894
C12   C     C_3   0.632237 0.500038 0.940457 -0.383053
C13   C     C_3   0.634611 0.500011 0.084247 -0.401631
C14   C     C_3   0.498931 0.500002 0.121157 0.173213
C15   C     C_3   0.495664 0.499996 0.876838 0.181000
C16   C     C_R   0.697159 0.856462 0.644478 0.195491
C17   C     C_R   0.691284 0.841294 0.773452 -0.142118
C18   C     C_R   0.799754 0.812156 0.852851 -0.171171
C19   C     C_R   0.914744 0.796312 0.804026 -0.119275
C20   C     C_R   0.921872 0.812622 0.676087 -0.139468
C21   C     C_R   0.813868 0.843180 0.596812 -0.120251
C22   C     C_R   0.696878 0.143406 0.644877 0.195440
C23   C     C_R   0.053042 0.500392 0.386676 -0.147392
C24   C     C_R   0.813743 0.156888 0.597584 -0.120035
C25   C     C_R   0.921556 0.187175 0.677214 -0.139946
C26   C     C_R   0.914048 0.203115 0.805132 -0.119468
C27   C     C_R   0.798892 0.187071 0.853585 -0.171232
C28   C     C_R   0.690642 0.158109 0.773838 -0.142459
C29   C     C_R   0.295101 0.142628 0.366995 0.197682
C30   C     C_R   0.290235 0.155020 0.236902 -0.151839
C31   C     C_R   0.177031 0.184567 0.165161 -0.168348
C32   C     C_R   0.067248 0.201322 0.222913 -0.116875
C33   C     C_R   0.070322 0.186238 0.352109 -0.133049
C34   C     C_R   0.076725 0.499637 0.613860 -0.231318
C35   C     C_R   0.183169 0.156302 0.423902 -0.119429
C36   C     C_R   0.295280 0.857492 0.366700 0.197703
C37   C     C_R   0.290652 0.845454 0.236597 -0.152355
C38   C     C_R   0.177541 0.816219 0.164595 -0.168413
C39   C     C_R   0.067608 0.799457 0.222091 -0.116987
C40   C     C_R   0.070444 0.814217 0.351294 -0.133369
C41   C     C_R   0.183216 0.843772 0.423351 -0.119325
C42   C     C_R   0.923406 0.500385 0.386757 -0.229913
C43   C     C_R   0.947056 0.499633 0.613930 -0.157077
C44   C     C_R   0.871064 0.499980 0.500453 0.003841
C45   C     C_R   0.129032 0.500032 0.500122 0.010721
C46   C     C_R   0.404453 0.073749 0.436117 0.028009
Cu1   Cu    Cu3+1 0.500020 0.640660 0.500000 0.938701
Cu2   Cu    Cu3+1 0.500020 0.359340 0.500000 0.938707
H1    H     H_    0.481705 0.721158 0.098809 0.170831
H2    H     H_    0.135990 0.499345 0.701714 0.110355
H3    H     H_    0.864246 0.500680 0.298909 0.112817
H4    H     H_    0.905868 0.499373 0.701892 0.137883
H5    H     H_    0.604983 0.863358 0.813358 0.102409
H6    H     H_    0.795068 0.804807 0.952672 0.119428
H7    H     H_    0.998638 0.774037 0.865525 0.113447
H8    H     H_    0.011445 0.803643 0.638768 0.129202
H9    H     H_    0.821013 0.862967 0.498958 0.103325
H10   H     H_    0.821166 0.137368 0.499744 0.103419
H11   H     H_    0.011272 0.196217 0.640175 0.129245
H12   H     H_    0.481811 0.278822 0.098893 0.170783
H13   H     H_    0.997778 0.225221 0.866904 0.113493
H14   H     H_    0.793905 0.194111 0.953379 0.119589
H15   H     H_    0.604241 0.135749 0.813440 0.102293
H16   H     H_    0.333333 0.629110 0.090296 0.165611
H17   H     H_    0.333403 0.370865 0.090305 0.165503
H18   H     H_    0.468892 0.723007 0.889979 0.169833
H19   H     H_    0.469088 0.276996 0.890075 0.169930
H20   H     H_    0.371751 0.128958 0.190574 0.103303
H21   H     H_    0.173801 0.190339 0.064419 0.119939
H22   H     H_    0.979511 0.223609 0.167485 0.114483
H23   H     H_    0.326438 0.626866 0.878427 0.145347
H24   H     H_    0.985072 0.197334 0.396367 0.130948
H25   H     H_    0.183182 0.138830 0.523258 0.103269
H26   H     H_    0.372279 0.871603 0.190477 0.103311
H27   H     H_    0.174502 0.810716 0.063853 0.120130
H28   H     H_    0.979939 0.777448 0.166459 0.114483
H29   H     H_    0.985060 0.803201 0.395348 0.130922
H30   H     H_    0.183063 0.861046 0.522711 0.103276
H31   H     H_    0.326545 0.373035 0.878449 0.145292
H32   H     H_    0.686001 0.591880 0.123442 0.150339
H33   H     H_    0.686037 0.408131 0.123440 0.150406
H34   H     H_    0.682838 0.590727 0.910503 0.168155
H35   H     H_    0.682976 0.409435 0.910482 0.168315
H36   H     H_    0.094222 0.500663 0.298710 0.134531
N1    N     N_R   0.500030 0.852070 0.500030 -0.202276
N2    N     N_R   0.500030 0.147930 0.500030 -0.202266
O1    O     O_R   0.319660 0.618740 0.499990 -0.577215
O2    O     O_R   0.319660 0.381260 0.499990 -0.577089
O3    O     O_R   0.499990 0.618790 0.317690 -0.583134
O4    O     O_R   0.499990 0.381210 0.317690 -0.583157
O5    O     O_R   0.680370 0.618830 0.500010 -0.575648
O6    O     O_R   0.680370 0.381170 0.500010 -0.575816
O7    O     O_R   0.500030 0.618780 0.682310 -0.585493
O8    O     O_R   0.500030 0.381220 0.682310 -0.585411

loop_
_geom_bond_atom_site_label_1
_geom_bond_atom_site_label_2
_ccdc_geom_bond_type
C1    O1    A    
C37   H26   S    
C16   C21   A    
C23   C45   A    
C3    N1    A    
C19   C20   A    
C20   H8    S    
C2    C46   A    
C26   C27   A    
C37   C38   A    
C23   C42   A    
Cu2   O8    S    
Cu1   N1    S    
C36   C37   A    
C26   H13   S    
C10   C15   S    
C30   C31   A    
C43   H4    S    
C4    N2    A    
C19   H7    S    
C6    O5    A    
C13   H33   S    
C2    N1    A    
C18   C19   A    
C33   H24   S    
C11   C15   S    
C31   C32   A    
C16   C17   A    
Cu2   O2    S    
C5    O4    A    
C42   H3    S    
C10   H23   S    
C1    O2    A    
C7    C15   S    
C13   H32   S    
C22   C28   A    
C13   C14   S    
Cu1   O3    S    
C36   C41   A    
C42   C44   A    
C11   H19   S    
C38   H27   S    
C10   H18   S    
C5    O3    A    
C7    O7    A    
C34   H2    S    
C23   H36   S    
C24   C25   A    
C41   H30   S    
C9    C14   S    
C32   H22   S    
C25   C26   A    
C12   H35   S    
Cu1   O1    S    
C43   C44   A    
C21   H9    S    
C29   C30   A    
C27   H14   S    
C4    C22   S    
Cu1   Cu2   S    
C12   C15   S    
C17   C18   A    
Cu1   O7    S    
C12   H34   S    
C34   C45   A    
C39   H28   S    
C12   C13   S    
C9    C11   S    
C5    C14   S    
C11   H31   S    
C8    H16   S    
C8    C10   S    
C40   C41   A    
Cu2   N2    S    
C3    C4    A    
C17   H5    S    
C39   C40   A    
C2    C36   S    
C7    O8    A    
C35   H25   S    
C8    C14   S    
Cu2   O4    S    
Cu1   O5    S    
C34   C43   A    
C29   C35   A    
C29   C46   S    
C9    H12   S    
C32   C33   A    
C1    C45   S    
C38   C39   A    
C6    O6    A    
C33   C35   A    
C22   C24   A    
C9    H17   S    
C18   H6    S    
C28   H15   S    
C31   H21   S    
C20   C21   A    
C24   H10   S    
Cu2   O6    S    
C27   C28   A    
C40   H29   S    
C6    C44   S    
C25   H11   S    
C8    H1    S    
C30   H20   S    
C3    C16   S    
C46   N2    A    
