data_str_m2_o1_o14_f0_pcu.sym.219
_audit_creation_date              2012-12-10T17:56:46-0500
_audit_creation_method            fapswitch 2.2
_symmetry_space_group_name_H-M    P1
_symmetry_Int_Tables_number       1
_space_group_crystal_system       triclinic
_cell_length_a                    10.816476
_cell_length_b                    9.508159
_cell_length_c                    10.874301
_cell_angle_alpha                 89.816589
_cell_angle_beta                  90.509703
_cell_angle_gamma                 90.140664
_cell_volume                      1118.31174942

loop_
_atom_site_label
_atom_site_type_symbol
_atom_type_description
_atom_site_fract_x
_atom_site_fract_y
_atom_site_fract_z
_atom_type_partial_charge
C1    C     C_R   0.262261 0.499900 0.495609 0.796168
C2    C     C_R   0.737659 0.499879 0.498717 0.794625
C3    C     C_R   0.937328 0.587224 0.572596 -0.210510
C4    C     C_R   0.065201 0.586795 0.571776 -0.194724
C5    C     C_R   0.413305 0.074445 0.434751 0.022541
C6    C     C_R   0.587769 0.074518 0.564358 0.025396
C7    C     C_R   0.412166 0.925713 0.435897 0.000617
C8    C     C_R   0.588622 0.925708 0.563152 0.001032
C9    C     C_R   0.492563 0.501080 0.261973 0.807725
C10   C     C_R   0.509860 0.500684 0.737753 0.795379
C11   C     C_R   0.449617 0.764405 0.112015 -0.341806
C12   C     C_R   0.562523 0.762082 0.884340 -0.327411
C13   C     C_R   0.475572 0.890906 0.052525 0.524024
C14   C     C_R   0.537489 0.889759 0.941131 0.531620
C15   C     C_R   0.523998 0.633351 0.937516 0.021283
C16   C     C_R   0.486262 0.634266 0.060920 0.012618
C17   C     C_R   0.487434 0.505220 0.127309 -0.086179
C18   C     C_R   0.519823 0.504179 0.872261 -0.097854
C19   C     C_R   0.498653 0.378216 0.063710 -0.179027
C20   C     C_R   0.508374 0.377602 0.937066 -0.219324
C21   C     C_R   0.062972 0.415311 0.405118 -0.037270
C22   C     C_R   0.933060 0.412014 0.409045 -0.043598
C23   C     C_R   0.871259 0.498798 0.493481 -0.069318
C24   C     C_R   0.128329 0.500115 0.490065 -0.076732
Cu1   Cu    Cu3+1 0.500000 0.640660 0.500000 0.941654
Cu2   Cu    Cu3+1 0.500000 0.359340 0.500000 0.973775
H1    H     H_    0.497067 0.278467 0.111759 0.242203
H2    H     H_    0.507407 0.277521 0.889989 0.238894
H3    H     H_    0.396715 0.770278 0.195242 0.188422
H4    H     H_    0.615167 0.765437 0.800768 0.185306
H5    H     H_    0.889695 0.654419 0.637004 0.137112
H6    H     H_    0.115225 0.653183 0.636100 0.150045
H7    H     H_    0.345225 0.130828 0.381744 0.148684
H8    H     H_    0.657931 0.130606 0.616136 0.134490
H9    H     H_    0.340989 0.870050 0.385325 0.111908
H10   H     H_    0.660548 0.869987 0.612491 0.113570
N1    N     N_R   0.500000 0.852070 0.500000 -0.171376
N2    N     N_R   0.500000 0.147940 0.500000 -0.175172
O1    O     O_R   0.319640 0.618740 0.499990 -0.592028
O2    O     O_R   0.680360 0.618740 0.500010 -0.593481
O3    O     O_R   0.319620 0.381170 0.499990 -0.578919
O4    O     O_R   0.680380 0.381170 0.500010 -0.586596
O5    O     O_R   0.500000 0.618810 0.319650 -0.590925
O6    O     O_R   0.500000 0.618810 0.680350 -0.582392
O7    O     O_R   0.499970 0.381240 0.319640 -0.564885
O8    O     O_R   0.500030 0.381240 0.680360 -0.572942
F1    F     F_    0.443860 0.014388 0.105256 -0.706945
F2    F     F_    0.569843 0.012088 0.885594 -0.705658
C25   C     C_R   0.126465 0.344535 0.302100 0.126373
C26   C     C_R   0.167051 0.425165 0.201880 -0.180525
C27   C     C_R   0.205777 0.359162 0.094321 -0.155595
C28   C     C_R   0.207533 0.212482 0.087243 -0.028331
C29   C     C_R   0.168820 0.131473 0.187250 -0.106197
C30   C     C_R   0.127201 0.197168 0.293999 -0.169291
H11   H     H_    0.163734 0.538949 0.205231 0.115798
H12   H     H_    0.233954 0.421871 0.016151 0.146154
H13   H     H_    0.238359 0.161703 0.004057 0.159118
H14   H     H_    0.169613 0.017845 0.181549 0.134672
H15   H     H_    0.093921 0.133506 0.369599 0.119108
C31   C     C_R   0.863015 0.325602 0.318643 0.123262
C32   C     C_R   0.824776 0.188854 0.349700 -0.105284
C33   C     C_R   0.766402 0.104040 0.261878 -0.126565
C34   C     C_R   0.748431 0.154212 0.142173 -0.081667
C35   C     C_R   0.787034 0.289889 0.110522 -0.132258
C36   C     C_R   0.843106 0.376067 0.198730 -0.146808
H16   H     H_    0.841289 0.147915 0.441418 0.108894
H17   H     H_    0.736509 0.998896 0.286164 0.138595
H18   H     H_    0.704986 0.087849 0.073862 0.192937
H19   H     H_    0.773580 0.328245 0.017570 0.149193
H20   H     H_    0.873523 0.480663 0.173139 0.124400

loop_
_geom_bond_atom_site_label_1
_geom_bond_atom_site_label_2
_ccdc_geom_bond_type
C10   O8    A    
C15   C18   A    
C14   F2    S    
C29   H14   S    
C6    N2    A    
C9    O7    A    
C33   C34   A    
C13   C14   A    
C36   H20   S    
C19   H1    S    
C11   C16   A    
C34   H18   S    
C3    C23   A    
C19   C20   A    
C12   C15   A    
C26   H11   S    
C6    H8    S    
C35   C36   A    
Cu1   O5    S    
C21   C25   S    
C26   C27   A    
C7    N1    A    
C25   C30   A    
C29   C30   A    
Cu1   O1    S    
C3    H5    S    
C1    O3    A    
C11   C13   A    
Cu2   O4    S    
C4    H6    S    
C33   H17   S    
C2    O4    A    
Cu1   O6    S    
C21   C22   A    
C17   C19   A    
C10   C18   S    
C31   C36   A    
C27   H12   S    
C18   C20   A    
C30   H15   S    
C8    H10   S    
Cu1   O2    S    
C22   C31   S    
C32   C33   A    
C4    C24   A    
C9    O5    A    
C16   C17   A    
C28   H13   S    
Cu2   O8    S    
C34   C35   A    
C10   O6    A    
C27   C28   A    
C5    H7    S    
C2    O2    A    
C5    N2    A    
C28   C29   A    
C11   H3    S    
C1    C24   S    
C13   F1    S    
C25   C26   A    
C8    N1    A    
C21   C24   A    
C9    C17   S    
C2    C23   S    
C5    C7    A    
C1    O1    A    
C22   C23   A    
Cu2   N2    S    
C6    C8    A    
C20   H2    S    
Cu2   O7    S    
C12   H4    S    
Cu1   Cu2   S    
C35   H19   S    
C7    H9    S    
C32   H16   S    
C3    C4    A    
C15   C16   A    
Cu2   O3    S    
C12   C14   A    
C31   C32   A    
Cu1   N1    S    
