data_str_m2_o1_o2_f0_pcu.sym.50
_audit_creation_date              2012-10-26T19:46:29-0400
_audit_creation_method            fapswitch 2.2
_symmetry_space_group_name_H-M    P1
_symmetry_Int_Tables_number       1
_space_group_crystal_system       triclinic
_cell_length_a                    10.883661
_cell_length_b                    9.580841
_cell_length_c                    15.132435
_cell_angle_alpha                 89.998186
_cell_angle_beta                  92.389962
_cell_angle_gamma                 90.003901
_cell_volume                      1576.5564292

loop_
_atom_site_label
_atom_site_type_symbol
_atom_type_description
_atom_site_fract_x
_atom_site_fract_y
_atom_site_fract_z
_atom_type_partial_charge
C1    C     C_R   0.262372 0.500405 0.502190 0.583940
C2    C     C_R   0.936316 0.629519 0.499449 0.352965
C3    C     C_R   0.936810 0.376362 0.493972 0.313600
C4    C     C_R   0.063725 0.629515 0.500890 0.352975
C5    C     C_R   0.564964 0.602092 0.095992 0.263861
C6    C     C_R   0.558735 0.389123 0.906599 0.266673
C7    C     C_R   0.435142 0.602193 0.904010 0.263844
C8    C     C_R   0.441026 0.389258 0.093410 0.266717
C9    C     C_R   0.567727 0.600165 0.188262 0.284872
C10   C     C_R   0.557569 0.390461 0.814487 0.319148
C11   C     C_R   0.432392 0.600267 0.811741 0.284890
C12   C     C_R   0.737630 0.500414 0.497832 0.583968
C13   C     C_R   0.442201 0.390608 0.185522 0.319164
C14   C     C_R   0.503255 0.497416 0.233353 -0.062579
C15   C     C_R   0.496707 0.497398 0.766651 -0.062624
C16   C     C_R   0.501188 0.496339 0.048386 -0.041230
C17   C     C_R   0.498749 0.496331 0.951619 -0.041253
C18   C     C_R   0.871562 0.502257 0.496061 -0.086437
C19   C     C_R   0.128441 0.502234 0.503998 -0.086437
C20   C     C_3   0.225742 0.100014 0.381107 0.043744
C21   C     C_3   0.573741 0.886525 0.712006 -0.040903
C22   C     C_3   0.774339 0.100146 0.618674 0.043577
C23   C     C_R   0.501248 0.499618 0.330040 0.594297
C24   C     C_3   0.426601 0.886539 0.287989 -0.041169
C25   C     C_3   0.739252 0.681664 0.034662 -0.067232
C26   C     C_3   0.735791 0.304090 0.971558 -0.071115
C27   C     C_3   0.260957 0.682058 0.965319 -0.067157
C28   C     C_3   0.263827 0.304600 0.028410 -0.071112
C29   C     C_R   0.498743 0.499612 0.669962 0.594149
C30   C     C_R   0.424221 0.075466 0.441854 0.338488
C31   C     C_R   0.566943 0.925739 0.563255 0.334090
C32   C     C_R   0.575789 0.075468 0.558137 0.338461
C33   C     C_R   0.433082 0.925739 0.436733 0.333993
C34   C     C_R   0.063154 0.376330 0.505848 0.313699
Cu1   Cu    Cu3+1 0.500000 0.640660 0.500000 1.182784
Cu2   Cu    Cu3+1 0.500000 0.359340 0.500000 1.182523
F1    F     F_    0.637602 0.695616 0.233534 -0.617464
F2    F     F_    0.617867 0.287776 0.772356 -0.590379
F3    F     F_    0.362666 0.695837 0.766470 -0.617386
F4    F     F_    0.381709 0.288073 0.227658 -0.590401
F5    F     F_    0.120389 0.252852 0.521608 -0.603160
F6    F     F_    0.877430 0.754540 0.499938 -0.549469
F7    F     F_    0.879532 0.252965 0.477985 -0.603168
F8    F     F_    0.122650 0.754539 0.500703 -0.549377
H1    H     H_    0.162405 0.188823 0.367760 0.193120
H2    H     H_    0.399266 0.805685 0.238605 0.158448
H3    H     H_    0.528798 0.889732 0.294282 0.204803
H4    H     H_    0.393070 0.987642 0.260924 0.182275
H5    H     H_    0.742101 0.611359 0.976503 0.073251
H6    H     H_    0.791326 0.635684 0.092595 0.138091
H7    H     H_    0.786662 0.779695 0.017117 0.155338
H8    H     H_    0.745989 0.376693 0.028542 0.084646
H9    H     H_    0.784432 0.345320 0.913654 0.124280
H10   H     H_    0.781408 0.204811 0.991562 0.159105
H11   H     H_    0.257996 0.611711 0.023456 0.073191
H12   H     H_    0.199603 0.048383 0.443596 0.217541
H13   H     H_    0.208819 0.636213 0.907363 0.138133
H14   H     H_    0.213698 0.780160 0.982898 0.155435
H15   H     H_    0.253800 0.376939 0.971297 0.084805
H16   H     H_    0.215265 0.346266 0.086218 0.124009
H17   H     H_    0.217987 0.205372 0.008593 0.159035
H18   H     H_    0.209984 0.027240 0.324926 0.141145
H19   H     H_    0.607441 0.987576 0.739058 0.182347
H20   H     H_    0.471542 0.889846 0.705825 0.204931
H21   H     H_    0.601073 0.805602 0.761344 0.158375
H22   H     H_    0.837631 0.189020 0.631961 0.192831
H23   H     H_    0.800351 0.048585 0.556138 0.217617
H24   H     H_    0.790278 0.027347 0.674811 0.141302
N1    N     N_R   0.500000 0.852070 0.500000 -0.237677
N2    N     N_R   0.500000 0.147930 0.500000 -0.248563
O1    O     O_R   0.319640 0.618740 0.499990 -0.424351
O2    O     O_3   0.627461 0.853330 0.631022 -0.546458
O3    O     O_3   0.652346 0.151613 0.615810 -0.496692
O4    O     O_3   0.372682 0.853339 0.368907 -0.546729
O5    O     O_3   0.616633 0.713906 0.053122 -0.474117
O6    O     O_3   0.610479 0.276514 0.951724 -0.465993
O7    O     O_3   0.383628 0.714095 0.946876 -0.474072
O8    O     O_3   0.389077 0.276743 0.048291 -0.466015
O9    O     O_R   0.680360 0.381260 0.500010 -0.441310
O10   O     O_R   0.680360 0.618740 0.500010 -0.424332
O11   O     O_R   0.319640 0.381260 0.499990 -0.441213
O12   O     O_R   0.499990 0.618780 0.371460 -0.456303
O13   O     O_R   0.500010 0.381220 0.628540 -0.431970
O14   O     O_R   0.500010 0.618780 0.628540 -0.456193
O15   O     O_R   0.499990 0.381220 0.371460 -0.431976
O16   O     O_3   0.347731 0.151619 0.384141 -0.496461

loop_
_geom_bond_atom_site_label_1
_geom_bond_atom_site_label_2
_ccdc_geom_bond_type
C8    C13   A    
C23   O12   A    
C2    C18   A    
Cu1   Cu2   S    
C20   H12   S    
C7    C11   A    
C3    F7    S    
C1    O1    A    
C29   O13   A    
C10   C15   A    
C27   H11   S    
Cu2   O13   S    
C1    O11   A    
C12   O9    A    
Cu1   O10   S    
C3    C18   A    
C25   H6    S    
C22   H22   S    
C21   H20   S    
C4    C19   A    
C11   C15   A    
C16   C17   S    
C7    C17   A    
C20   O16   S    
C26   O6    S    
C30   O16   S    
C28   O8    S    
C20   H1    S    
C33   N1    A    
C7    O7    S    
C28   H17   S    
Cu1   O1    S    
C8    C16   A    
C13   C14   A    
C8    O8    S    
C34   F5    S    
C26   H10   S    
C30   N2    A    
Cu1   O12   S    
Cu2   N2    S    
C15   C29   S    
C28   H16   S    
C1    C19   S    
C21   O2    S    
C24   H4    S    
C29   O14   A    
C27   H13   S    
C32   O3    S    
C32   N2    A    
C4    F8    S    
C3    C34   A    
C27   H14   S    
Cu2   O9    S    
C25   O5    S    
C14   C23   S    
C5    O5    S    
C2    C4    A    
C9    C14   A    
C25   H7    S    
C5    C9    A    
C26   H8    S    
C31   C32   A    
Cu2   O11   S    
C9    F1    S    
C11   F3    S    
C22   H24   S    
C31   O2    S    
C13   F4    S    
C26   H9    S    
C28   H15   S    
C6    C17   A    
C30   C33   A    
C21   H21   S    
C24   H3    S    
C27   O7    S    
C19   C34   A    
C6    C10   A    
Cu1   O14   S    
C6    O6    S    
Cu2   O15   S    
C10   F2    S    
C24   H2    S    
C5    C16   A    
C24   O4    S    
C2    F6    S    
C12   O10   A    
C20   H18   S    
C25   H5    S    
C22   H23   S    
C21   H19   S    
C33   O4    S    
C31   N1    A    
Cu1   N1    S    
C23   O15   A    
C12   C18   S    
C22   O3    S    
