data_str_m1_o9_o15_f0_pcu.sym.95
_audit_creation_date              2013-03-05T16:45:53-0500
_audit_creation_method            fapswitch 2.2
_symmetry_space_group_name_H-M    P1
_symmetry_Int_Tables_number       1
_space_group_crystal_system       triclinic
_cell_length_a                    18.338282
_cell_length_b                    18.337724
_cell_length_c                    18.337719
_cell_angle_alpha                 59.844143
_cell_angle_beta                  59.841995
_cell_angle_gamma                 59.84539
_cell_volume                      4345.02767101

loop_
_atom_site_label
_atom_site_type_symbol
_atom_site_description
_atom_site_fract_x
_atom_site_fract_y
_atom_site_fract_z
_atom_type_partial_charge
Zn1   Zn    Zn3+2 0.206620 0.206630 0.380140 0.963713
Zn2   Zn    Zn3+2 0.793380 0.793370 0.619860 0.948466
Zn3   Zn    Zn3+2 0.206630 0.380140 0.206620 0.963584
Zn4   Zn    Zn3+2 0.793370 0.619860 0.793380 0.948327
Zn5   Zn    Zn3+2 0.380140 0.206620 0.206630 0.963701
Zn6   Zn    Zn3+2 0.619860 0.793380 0.793370 0.948435
Zn7   Zn    Zn3+2 0.206620 0.206620 0.206620 0.963624
Zn8   Zn    Zn3+2 0.793380 0.793380 0.793380 0.973651
O1    O     O_3   0.250000 0.250000 0.250000 -0.486487
O2    O     O_3   0.750000 0.750000 0.750000 -0.483592
O3    O     O_R   0.305080 0.134200 0.134200 -0.638488
O4    O     O_R   0.694920 0.865800 0.865800 -0.625616
O5    O     O_R   0.134200 0.134200 0.305080 -0.638567
O6    O     O_R   0.865800 0.865800 0.694920 -0.625781
O7    O     O_R   0.134200 0.305080 0.134200 -0.638633
O8    O     O_R   0.865800 0.694920 0.865800 -0.625781
O9    O     O_R   0.134200 0.305090 0.426530 -0.643995
O10   O     O_R   0.865800 0.694910 0.573470 -0.642885
O11   O     O_R   0.305090 0.426530 0.134200 -0.644080
O12   O     O_R   0.694910 0.573470 0.865800 -0.642924
O13   O     O_R   0.426530 0.134200 0.305090 -0.643961
O14   O     O_R   0.573470 0.865800 0.694910 -0.642865
O15   O     O_R   0.134190 0.426530 0.134200 -0.628676
O16   O     O_R   0.865810 0.573470 0.865800 -0.650957
O17   O     O_R   0.426530 0.134200 0.134190 -0.628558
O18   O     O_R   0.573470 0.865800 0.865810 -0.650862
O19   O     O_R   0.134200 0.134190 0.426530 -0.628535
O20   O     O_R   0.865800 0.865810 0.573470 -0.650722
O21   O     O_R   0.426530 0.305080 0.134210 -0.637278
O22   O     O_R   0.573470 0.694920 0.865790 -0.635816
O23   O     O_R   0.305080 0.134210 0.426530 -0.637319
O24   O     O_R   0.694920 0.865790 0.573470 -0.635821
O25   O     O_R   0.134210 0.426530 0.305080 -0.637261
O26   O     O_R   0.865790 0.573470 0.694920 -0.635793
C1    C     C_R   0.389906 0.110192 0.110119 0.784705
C2    C     C_R   0.610029 0.889822 0.889840 0.779735
C3    C     C_R   0.110188 0.110122 0.389908 0.784651
C4    C     C_R   0.889827 0.889836 0.610027 0.779620
C5    C     C_R   0.110134 0.389910 0.110174 0.784512
C6    C     C_R   0.889847 0.610028 0.889819 0.779470
C7    C     C_R   0.111180 0.390375 0.389780 0.776371
C8    C     C_R   0.890028 0.609442 0.610295 0.792164
C9    C     C_R   0.390375 0.389779 0.111167 0.776157
C10   C     C_R   0.609442 0.610295 0.890030 0.792119
C11   C     C_R   0.389778 0.111170 0.390379 0.776321
C12   C     C_R   0.610295 0.890031 0.609441 0.792121
H1    H     H_    0.807498 0.287340 0.530407 0.128728
H2    H     H_    0.191362 0.713592 0.466508 0.133951
H3    H     H_    0.286311 0.533632 0.808473 0.128585
H4    H     H_    0.714503 0.463896 0.190502 0.133951
H5    H     H_    0.530324 0.807496 0.287372 0.128652
H6    H     H_    0.466578 0.191358 0.713564 0.133875
C13   C     C_R   0.181705 0.925991 0.402457 -0.135714
C14   C     C_R   0.817518 0.074645 0.595142 -0.151784
C15   C     C_R   0.926500 0.400991 0.181210 -0.135579
C16   C     C_R   0.074144 0.596783 0.818009 -0.151161
C17   C     C_R   0.402486 0.181705 0.925975 -0.135731
C18   C     C_R   0.595107 0.817515 0.074664 -0.151688
C19   C     C_R   0.217154 0.836717 0.408070 -0.141486
C20   C     C_R   0.781770 0.164177 0.588749 -0.137242
C21   C     C_R   0.837468 0.405911 0.216433 -0.141383
C22   C     C_R   0.163382 0.591268 0.782535 -0.137032
C23   C     C_R   0.408119 0.217152 0.836694 -0.141384
C24   C     C_R   0.588691 0.781767 0.164204 -0.137142
C25   C     C_R   0.163491 0.783099 0.461687 -0.153097
C26   C     C_R   0.835535 0.217698 0.535557 -0.151776
C27   C     C_R   0.783846 0.459559 0.162787 -0.152776
C28   C     C_R   0.216885 0.538107 0.836306 -0.151550
C29   C     C_R   0.461741 0.163489 0.783077 -0.153061
C30   C     C_R   0.535492 0.835533 0.217724 -0.151803
C31   C     C_R   0.074069 0.818522 0.509788 -0.139191
C32   C     C_R   0.925293 0.181982 0.488406 -0.146851
C33   C     C_R   0.819029 0.508354 0.073599 -0.138731
C34   C     C_R   0.181449 0.490100 0.925791 -0.146448
C35   C     C_R   0.509828 0.074066 0.818509 -0.138937
C36   C     C_R   0.488359 0.925292 0.181998 -0.146661
C37   C     C_R   0.036212 0.909329 0.504569 0.081124
C38   C     C_R   0.963380 0.090977 0.494256 0.074234
C39   C     C_R   0.909610 0.503825 0.035948 0.080853
C40   C     C_R   0.090713 0.495101 0.963632 0.074362
C41   C     C_R   0.504587 0.036210 0.909322 0.081054
C42   C     C_R   0.494233 0.963379 0.090986 0.074319
C43   C     C_R   0.090788 0.963789 0.450246 0.073786
C44   C     C_R   0.908773 0.036554 0.548430 0.061580
C45   C     C_R   0.964070 0.449493 0.090518 0.073553
C46   C     C_R   0.036298 0.549261 0.909022 0.061855
C47   C     C_R   0.450261 0.090788 0.963781 0.073691
C48   C     C_R   0.548411 0.908771 0.036564 0.061601
C49   C     C_R   0.945801 0.946064 0.553548 -0.163849
C50   C     C_R   0.054038 0.054025 0.445955 -0.154879
C51   C     C_R   0.946083 0.553559 0.945787 -0.164641
C52   C     C_R   0.054039 0.445965 0.054023 -0.155412
C53   C     C_R   0.553550 0.945798 0.946066 -0.163962
C54   C     C_R   0.445950 0.054039 0.054024 -0.154901
H7    H     H_    0.226525 0.964589 0.360760 0.122667
H8    H     H_    0.772669 0.036077 0.636517 0.123610
H9    H     H_    0.965060 0.359294 0.226057 0.123356
H10   H     H_    0.035623 0.638136 0.773124 0.124226
H11   H     H_    0.360785 0.226525 0.964572 0.122679
H12   H     H_    0.636486 0.772665 0.036096 0.123621
H13   H     H_    0.286722 0.808918 0.371060 0.130730
H14   H     H_    0.711927 0.192214 0.624921 0.135261
H15   H     H_    0.809844 0.368370 0.285829 0.130734
H16   H     H_    0.191215 0.628087 0.712888 0.135503
H17   H     H_    0.371120 0.286721 0.808888 0.130646
H18   H     H_    0.624849 0.711923 0.192248 0.135218
H19   H     H_    0.035404 0.773768 0.551338 0.121849
H20   H     H_    0.964041 0.226659 0.447034 0.122145
H21   H     H_    0.774237 0.549929 0.034983 0.122493
H22   H     H_    0.226147 0.448749 0.964508 0.122799
H23   H     H_    0.551382 0.035400 0.773755 0.121829
H24   H     H_    0.446982 0.964042 0.226674 0.122097
H25   H     H_    0.214447 0.706447 0.068540 0.151327
H26   H     H_    0.850359 0.281333 0.945012 0.163846
H27   H     H_    0.706461 0.068630 0.214590 0.151337
H28   H     H_    0.281192 0.944954 0.850418 0.163957
H29   H     H_    0.068566 0.214338 0.706565 0.151279
H30   H     H_    0.945034 0.850837 0.281258 0.163843
C55   C     C_R   0.227875 0.618371 0.196799 -0.236567
C56   C     C_R   0.820737 0.347324 0.823153 -0.238014
C57   C     C_R   0.618188 0.196847 0.228033 -0.236631
C58   C     C_R   0.347267 0.823125 0.820724 -0.238013
C59   C     C_R   0.196812 0.227773 0.618481 -0.236481
C60   C     C_R   0.823283 0.821032 0.347173 -0.238086
H31   H     H_    0.297964 0.610199 0.172771 0.154353
H32   H     H_    0.758678 0.333650 0.855783 0.161994
H33   H     H_    0.609907 0.172824 0.298154 0.154367
H34   H     H_    0.333574 0.855761 0.758673 0.162014
H35   H     H_    0.172793 0.297850 0.610349 0.154328
H36   H     H_    0.856011 0.759008 0.333412 0.162026
C61   C     C_R   0.186245 0.573517 0.286399 0.238083
C62   C     C_R   0.847604 0.394615 0.731041 0.233642
C63   C     C_R   0.573299 0.286418 0.186387 0.238338
C64   C     C_R   0.394616 0.731027 0.847546 0.233742
C65   C     C_R   0.286400 0.186164 0.573593 0.238112
C66   C     C_R   0.731166 0.847774 0.394480 0.233760
C67   C     C_R   0.094760 0.584402 0.315516 0.041650
C68   C     C_R   0.930095 0.409882 0.689645 0.050659
C69   C     C_R   0.584355 0.315540 0.094850 0.041582
C70   C     C_R   0.409894 0.689626 0.930032 0.050688
C71   C     C_R   0.315510 0.094695 0.584429 0.041565
C72   C     C_R   0.689652 0.930221 0.409857 0.050652
C73   C     C_R   0.047504 0.640139 0.254844 -0.258598
C74   C     C_R   0.982382 0.379455 0.741393 -0.310966
C75   C     C_R   0.640243 0.254880 0.047580 -0.258704
C76   C     C_R   0.379438 0.741359 0.982347 -0.310923
C77   C     C_R   0.254837 0.047435 0.640141 -0.258454
C78   C     C_R   0.741290 0.982587 0.379531 -0.311079
H37   H     H_    0.978173 0.647072 0.276454 0.150376
H38   H     H_    0.045708 0.390984 0.708004 0.133010
H39   H     H_    0.647275 0.276475 0.978221 0.150362
H40   H     H_    0.390977 0.707964 0.045668 0.133036
H41   H     H_    0.276443 0.978119 0.647028 0.150338
H42   H     H_    0.707807 0.045875 0.391148 0.133012
C79   C     C_R   0.088333 0.687317 0.166582 0.603001
C80   C     C_R   0.953176 0.334689 0.834782 0.606423
C81   C     C_R   0.687444 0.166648 0.088433 0.602998
C82   C     C_R   0.334618 0.834734 0.953186 0.606252
C83   C     C_R   0.166584 0.088234 0.687356 0.603078
C84   C     C_R   0.834681 0.953512 0.334742 0.606490
C85   C     C_R   0.179846 0.674292 0.137387 -0.257102
C86   C     C_R   0.872977 0.317510 0.874018 -0.227275
C87   C     C_R   0.674283 0.137459 0.179981 -0.257162
C88   C     C_R   0.317416 0.873972 0.873000 -0.227277
C89   C     C_R   0.137400 0.179739 0.674385 -0.257422
C90   C     C_R   0.874035 0.873357 0.317452 -0.227380
C91   C     C_R   0.988528 0.591174 0.464347 -0.287536
C92   C     C_R   0.016602 0.407864 0.536324 -0.289848
C93   C     C_R   0.591155 0.464361 0.988590 -0.287467
C94   C     C_R   0.407882 0.536305 0.016521 -0.289948
C95   C     C_R   0.464341 0.988485 0.591185 -0.287394
C96   C     C_R   0.536316 0.016577 0.407869 -0.289915
H43   H     H_    0.978693 0.662192 0.436115 0.180630
H44   H     H_    0.026124 0.336969 0.564569 0.183099
H45   H     H_    0.662159 0.436144 0.978808 0.180550
H46   H     H_    0.336999 0.564536 0.025998 0.183041
H47   H     H_    0.436106 0.978638 0.662208 0.180643
H48   H     H_    0.564561 0.026110 0.336970 0.183125
C97   C     C_R   0.947303 0.551882 0.555555 -0.049542
C98   C     C_R   0.057498 0.447202 0.445119 -0.056948
C99   C     C_R   0.551881 0.555554 0.947304 -0.049524
C100  C     C_R   0.447202 0.445117 0.057476 -0.056837
C101  C     C_R   0.555554 0.947294 0.551882 -0.049549
C102  C     C_R   0.445111 0.057462 0.447212 -0.056992
C103  C     C_R   0.963722 0.458407 0.592549 0.024602
C104  C     C_R   0.046297 0.539415 0.409231 0.049394
C105  C     C_R   0.458422 0.592533 0.963655 0.024549
C106  C     C_R   0.539393 0.409244 0.046344 0.049385
C107  C     C_R   0.592545 0.963728 0.458404 0.024589
C108  C     C_R   0.409223 0.046246 0.539431 0.049319
C109  C     C_3   0.240702 0.515256 0.348662 -0.416529
C110  C     C_3   0.224572 0.564844 0.404558 -0.892148
H49   H     H_    0.242355 0.626747 0.360180 0.259658
H50   H     H_    0.153534 0.582817 0.448016 0.265645
H51   H     H_    0.267008 0.521277 0.447848 0.245997
H52   H     H_    0.224922 0.452470 0.393263 0.187493
H53   H     H_    0.313296 0.494885 0.309595 0.194993
C111  C     C_3   0.787093 0.427176 0.679775 -0.435491
C112  C     C_3   0.701522 0.502271 0.706408 -0.848437
H54   H     H_    0.663212 0.478877 0.778800 0.261001
H55   H     H_    0.717889 0.560039 0.691507 0.259683
H56   H     H_    0.658609 0.524597 0.667865 0.239130
H57   H     H_    0.820444 0.452185 0.606365 0.210107
H58   H     H_    0.769513 0.370459 0.693871 0.204716
C113  C     C_3   0.514829 0.348647 0.240885 -0.416272
C114  C     C_3   0.564280 0.404531 0.225021 -0.892925
H59   H     H_    0.626028 0.360130 0.243071 0.259356
H60   H     H_    0.582487 0.447921 0.153974 0.265595
H61   H     H_    0.520529 0.447878 0.267402 0.246230
H62   H     H_    0.452128 0.393252 0.224955 0.187454
H63   H     H_    0.494315 0.309557 0.313462 0.194835
C115  C     C_3   0.427227 0.679782 0.786992 -0.435731
C116  C     C_3   0.502263 0.706520 0.701397 -0.848397
H64   H     H_    0.478793 0.778911 0.663131 0.260984
H65   H     H_    0.560022 0.691681 0.717737 0.259715
H66   H     H_    0.524630 0.667997 0.658446 0.239111
H67   H     H_    0.452316 0.606376 0.820299 0.210042
H68   H     H_    0.370518 0.693816 0.769442 0.204509
C117  C     C_3   0.348659 0.240628 0.515347 -0.416466
C118  C     C_3   0.404508 0.224521 0.564968 -0.892146
H69   H     H_    0.360102 0.242333 0.626853 0.259661
H70   H     H_    0.447945 0.153480 0.582978 0.265618
H71   H     H_    0.447812 0.266947 0.521405 0.245999
H72   H     H_    0.393291 0.224826 0.452576 0.187446
H73   H     H_    0.309596 0.313220 0.494948 0.194912
C119  C     C_3   0.680021 0.787176 0.426948 -0.435514
C120  C     C_3   0.706698 0.701588 0.502011 -0.848350
H74   H     H_    0.779107 0.663351 0.478600 0.261017
H75   H     H_    0.691735 0.717925 0.559822 0.259728
H76   H     H_    0.668231 0.658617 0.524285 0.239121
H77   H     H_    0.606600 0.820448 0.451961 0.210085
H78   H     H_    0.694195 0.769627 0.370180 0.204765
O27   O     O_3   0.038162 0.739927 0.109682 -0.599723
C121  C     C_3   0.049527 0.824530 0.059593 -0.317494
H79   H     H_    0.111858 0.820734 0.000641 0.177555
H80   H     H_    0.048759 0.853438 0.100973 0.160889
H81   H     H_    0.992837 0.871277 0.033839 0.188750
O28   O     O_3   0.002161 0.301201 0.889927 -0.608209
C122  C     C_3   0.052725 0.354250 0.861820 -0.279846
H82   H     H_    0.014528 0.427150 0.840855 0.171235
H83   H     H_    0.116533 0.337193 0.807472 0.155320
H84   H     H_    0.070094 0.338878 0.919062 0.203960
O29   O     O_3   0.740225 0.109763 0.038236 -0.599778
C123  C     C_3   0.824778 0.059761 0.049710 -0.317627
H85   H     H_    0.820970 0.000790 0.112024 0.177513
H86   H     H_    0.853542 0.101196 0.049061 0.161130
H87   H     H_    0.871655 0.034047 0.993004 0.188487
O30   O     O_3   0.301097 0.889857 0.002209 -0.608329
C124  C     C_3   0.354144 0.861769 0.052763 -0.279505
H88   H     H_    0.427043 0.840854 0.014541 0.171285
H89   H     H_    0.337127 0.807391 0.116557 0.155382
H90   H     H_    0.338732 0.919002 0.070171 0.203992
O31   O     O_3   0.109712 0.038020 0.739949 -0.599791
C125  C     C_3   0.059219 0.049696 0.824404 -0.317722
H91   H     H_    0.000184 0.111920 0.820304 0.177658
H92   H     H_    0.100242 0.049352 0.853414 0.161030
H93   H     H_    0.033588 0.992929 0.871233 0.188746
O32   O     O_3   0.889723 0.002583 0.301342 -0.608244
C126  C     C_3   0.861457 0.053172 0.354425 -0.279614
H94   H     H_    0.840482 0.014951 0.427322 0.171174
H95   H     H_    0.807072 0.116928 0.337355 0.155268
H96   H     H_    0.918612 0.070646 0.339103 0.203930

loop_
_geom_bond_atom_site_label_1
_geom_bond_atom_site_label_2
_geom_bond_distance
_ccdc_geom_bond_type
Zn7   O5    1.934133 S    
C91   C97   1.397896 A    
C79   O27   1.388314 S    
C74   C80   1.414643 A    
C42   C54   1.413943 A    
H3    C28   1.082750 S    
C31   H19   1.081836 S    
C13   H7    1.081865 S    
C7    C98   1.453574 S    
Zn3   O15   1.937579 S    
C122  H82   1.113103 S    
O26   C8    1.270403 A    
C16   H10   1.081889 S    
C126  H96   1.109611 S    
C77   C83   1.398234 A    
C55   C85   1.395902 A    
C118  H70   1.109143 S    
C99   C105  1.416834 A    
C20   C26   1.389550 A    
C14   C20   1.393392 A    
C116  H64   1.110585 S    
C79   C85   1.408189 A    
C92   H44   1.084060 S    
C119  H77   1.109419 S    
C4    C49   1.453158 S    
C37   C49   1.413840 A    
C124  H88   1.113108 S    
C78   H42   1.081826 S    
C125  H92   1.114897 S    
Zn3   O1    1.944747 S    
C10   C99   1.454771 S    
C95   C101  1.397919 A    
C21   H15   1.082788 S    
C57   H33   1.082783 S    
C46   C51   1.414021 A    
O10   C8    1.283862 A    
C64   C70   1.414635 A    
O31   C125  1.412379 S    
Zn4   O16   1.937577 S    
C56   H32   1.080657 S    
C56   C86   1.394976 A    
H26   C86   1.083127 S    
Zn2   O10   1.935542 S    
C115  H67   1.109423 S    
C113  H63   1.111745 S    
C62   C68   1.414621 A    
O29   C123  1.412384 S    
C17   H11   1.081868 S    
C47   C54   1.414416 A    
Zn1   O23   1.935632 S    
C58   C88   1.394991 A    
C123  H85   1.110944 S    
Zn2   O24   1.935634 S    
C78   C84   1.414641 A    
C96   C102  1.396852 A    
C109  H52   1.108654 S    
C58   C64   1.403349 A    
C66   C72   1.414622 A    
H6    C29   1.082283 S    
C117  H72   1.108628 S    
O28   C122  1.412115 S    
C16   C46   1.417417 A    
C2    C53   1.453170 S    
C26   C32   1.393484 A    
C32   H20   1.081859 S    
H29   C89   1.080407 S    
C59   H35   1.082778 S    
C94   C105  1.383835 A    
C112  H56   1.109464 S    
C32   C38   1.417273 A    
C121  H80   1.114857 S    
Zn3   O11   1.935528 S    
C111  C112  1.527074 S    
C27   C33   1.393276 A    
H5    C30   1.082642 S    
C24   C30   1.389551 A    
H2    C25   1.082285 S    
C23   H17   1.082713 S    
H4    C27   1.082261 S    
C81   C87   1.408154 A    
H1    C26   1.082648 S    
O5    C3    1.274997 A    
C42   C48   1.412125 A    
C82   C88   1.398008 A    
C91   H43   1.084903 S    
Zn7   O7    1.934243 S    
C44   C49   1.413858 A    
C67   C73   1.403520 A    
C77   H41   1.082427 S    
C80   C86   1.398003 A    
C112  H54   1.110587 S    
Zn8   O8    1.934245 S    
C34   C40   1.417434 A    
O21   C9    1.272026 A    
C34   H22   1.081819 S    
C18   C24   1.393393 A    
C36   H24   1.081864 S    
O22   C10   1.270446 A    
Zn1   O9    1.935542 S    
C82   O30   1.393286 S    
C20   H14   1.082686 S    
C101  C107  1.416825 A    
C62   C111  1.513359 S    
C118  H69   1.110990 S    
O12   C10   1.283879 A    
C45   C52   1.414562 A    
O11   C9    1.281373 A    
C17   C23   1.393550 A    
O13   C11   1.281372 A    
C116  H65   1.110478 S    
C13   C19   1.393551 A    
Zn4   O26   1.935507 S    
C124  H89   1.110875 S    
C64   C115  1.513368 S    
C60   C66   1.403343 A    
C60   H36   1.080692 S    
C109  C110  1.525321 S    
C19   H13   1.082721 S    
C110  H51   1.110381 S    
C72   C78   1.405693 A    
C37   C43   1.412178 A    
C68   C103  1.482767 S    
C18   H12   1.081939 S    
C93   C106  1.386565 A    
C70   C76   1.405687 A    
C117  C118  1.525321 S    
C114  H59   1.110982 S    
C35   C41   1.417446 A    
C94   H46   1.084064 S    
C125  H93   1.108991 S    
C80   O28   1.393274 S    
C92   C98   1.396826 A    
C72   C107  1.482774 S    
C55   C61   1.404182 A    
H30   C90   1.083127 S    
C22   H16   1.082767 S    
C38   C50   1.413955 A    
C83   C89   1.408295 A    
C95   C108  1.386549 A    
C59   C65   1.404164 A    
C121  H81   1.109003 S    
C110  H50   1.109133 S    
C12   C101  1.454812 S    
C15   C45   1.417683 A    
Zn7   O3    1.934164 S    
Zn5   O1    1.944766 S    
C125  H91   1.110941 S    
C61   C67   1.417782 A    
C17   C47   1.417504 A    
O6    C4    1.276081 A    
C57   C87   1.395899 A    
C41   C53   1.413828 A    
C21   C27   1.389338 A    
C73   C79   1.398217 A    
C120  H74   1.110587 S    
C65   C71   1.417759 A    
C8    C97   1.454753 S    
Zn8   O4    1.934166 S    
C65   C117  1.513409 S    
C15   H9    1.081816 S    
C84   O32   1.393310 S    
C93   H45   1.084902 S    
Zn1   O1    1.944683 S    
C122  H83   1.110876 S    
C100  C106  1.415435 A    
C117  H73   1.111770 S    
C33   H21   1.081807 S    
C40   C52   1.414155 A    
O7    C5    1.275061 A    
C75   H39   1.082403 S    
C98   C104  1.415445 A    
O8    C6    1.276099 A    
O14   C12   1.283838 A    
C60   C90   1.395000 A    
C3    C50   1.453741 S    
C113  C114  1.525211 S    
O18   C2    1.275256 A    
Zn6   O22   1.935518 S    
O17   C1    1.276690 A    
C63   C69   1.417795 A    
C84   C90   1.398010 A    
C30   C36   1.393473 A    
C76   H40   1.081826 S    
C102  C108  1.415448 A    
O4    C2    1.276111 A    
C121  H79   1.110915 S    
C83   O31   1.388417 S    
C36   C42   1.417265 A    
C126  H94   1.113110 S    
Zn2   O2    1.944680 S    
Zn5   O21   1.935518 S    
C55   H31   1.082778 S    
C5    C52   1.453812 S    
C31   C37   1.417454 A    
C71   C108  1.483703 S    
O30   C124  1.412116 S    
Zn1   O19   1.937500 S    
C67   C104  1.483685 S    
O27   C121  1.412384 S    
C116  H66   1.109469 S    
C96   H48   1.084047 S    
Zn7   O1    1.950862 S    
C43   C50   1.414422 A    
C66   C119  1.513372 S    
C48   C53   1.413849 A    
C69   C75   1.403526 A    
C124  H90   1.109609 S    
Zn8   O6    1.934135 S    
C92   C103  1.383826 A    
C120  H75   1.110461 S    
C93   C99   1.397934 A    
C70   C105  1.482788 S    
O24   C12   1.270431 A    
H28   C88   1.083135 S    
C56   C62   1.403314 A    
C109  H53   1.111755 S    
Zn4   O2    1.944750 S    
C33   C39   1.417562 A    
C18   C48   1.417238 A    
Zn5   O17   1.937491 S    
Zn2   O20   1.937501 S    
C58   H34   1.080685 S    
C24   H18   1.082677 S    
C76   C82   1.414630 A    
Zn4   O12   1.935526 S    
C61   C109  1.513448 S    
C96   C107  1.383863 A    
C75   C81   1.398213 A    
C9    C100  1.453551 S    
C35   H23   1.081841 S    
C123  H87   1.108993 S    
C22   C28   1.389475 A    
C13   C43   1.417516 A    
O25   C7    1.271996 A    
C110  H49   1.110992 S    
C1    C54   1.453755 S    
O3    C1    1.275025 A    
O32   C126  1.412103 S    
C81   O29   1.388326 S    
C23   C29   1.389425 A    
C126  H95   1.110880 S    
C25   C31   1.393281 A    
C74   H38   1.081826 S    
C19   C25   1.389429 A    
C111  H58   1.111527 S    
C41   C47   1.412186 A    
C114  H61   1.110393 S    
Zn6   O18   1.937489 S    
C115  H68   1.111529 S    
C113  H62   1.108605 S    
O19   C3    1.276665 A    
C119  H78   1.111508 S    
C15   C21   1.393542 A    
O16   C6    1.275289 A    
C39   C45   1.412169 A    
C123  H86   1.114897 S    
C97   C103  1.416841 A    
C29   C35   1.393269 A    
C122  H84   1.109609 S    
C16   C22   1.393422 A    
C6    C51   1.453261 S    
H27   C87   1.080397 S    
C14   C44   1.417252 A    
C39   C51   1.414007 A    
O9    C7    1.281369 A    
Zn6   O2    1.944768 S    
C71   C77   1.403503 A    
C91   C104  1.386524 A    
H25   C85   1.080401 S    
C59   C89   1.395896 A    
C38   C44   1.412116 A    
C40   C46   1.412121 A    
C73   H37   1.082440 S    
C120  H76   1.109488 S    
Zn5   O13   1.935587 S    
C115  C116  1.527095 S    
Zn8   O2    1.950860 S    
C119  C120  1.527085 S    
O23   C11   1.272002 A    
C111  H57   1.109421 S    
C112  H55   1.110476 S    
Zn3   O25   1.935509 S    
C95   H47   1.084898 S    
C68   C74   1.405693 A    
C57   C63   1.404181 A    
O20   C4    1.275240 A    
C114  H60   1.109176 S    
C63   C113  1.513416 S    
C14   H8    1.081935 S    
O15   C5    1.276660 A    
C118  H71   1.110377 S    
C94   C100  1.396832 A    
C69   C106  1.483752 S    
C11   C102  1.453637 S    
C28   C34   1.393535 A    
Zn6   O14   1.935590 S    
