data_str_m2_o4_o14_f0_pcu.sym.67
_audit_creation_date              2013-03-05T16:31:07-0500
_audit_creation_method            fapswitch 2.2
_symmetry_space_group_name_H-M    P1
_symmetry_Int_Tables_number       1
_space_group_crystal_system       triclinic
_cell_length_a                    10.801683
_cell_length_b                    10.77634
_cell_length_c                    9.574212
_cell_angle_alpha                 90.21422
_cell_angle_beta                  89.812979
_cell_angle_gamma                 92.688315
_cell_volume                      1113.22363871

loop_
_atom_site_label
_atom_site_type_symbol
_atom_site_description
_atom_site_fract_x
_atom_site_fract_y
_atom_site_fract_z
_atom_type_partial_charge
O1    O     O_R   0.500000 0.319640 0.618810 -0.571781
O2    O     O_R   0.500010 0.319680 0.381230 -0.599329
C1    C     C_R   0.510256 0.263308 0.499920 0.886409
O3    O     O_R   0.319640 0.499980 0.618820 -0.553605
O4    O     O_R   0.319650 0.500020 0.381230 -0.594755
C2    C     C_R   0.262262 0.490817 0.500670 0.863868
Cu1   Cu    Cu3+1 0.499990 0.499980 0.640670 0.960004
Cu2   Cu    Cu3+1 0.500010 0.500020 0.359330 0.945153
O5    O     O_R   0.499990 0.680320 0.618770 -0.581069
O6    O     O_R   0.500000 0.680360 0.381190 -0.581214
O7    O     O_R   0.680350 0.499980 0.618770 -0.585707
O8    O     O_R   0.680360 0.500020 0.381180 -0.598531
C3    C     C_R   0.505155 0.737972 0.499976 0.801655
C4    C     C_R   0.737313 0.499005 0.499417 0.762820
H1    H     H_    0.122213 0.653958 0.618145 0.146635
C5    C     C_R   0.107138 0.263714 0.405472 0.314195
C6    C     C_R   0.036799 0.179365 0.322112 -0.168997
H2    H     H_    0.074722 0.093402 0.286859 0.180886
C7    C     C_R   0.913176 0.197979 0.295124 -0.217437
H3    H     H_    0.858537 0.129542 0.235802 0.156038
C8    C     C_R   0.856916 0.298672 0.354313 -0.198360
H4    H     H_    0.758227 0.302261 0.339857 0.161036
C9    C     C_R   0.926962 0.390232 0.430281 0.065088
C10   C     C_R   0.056451 0.378533 0.445353 -0.008290
C11   C     C_R   0.127420 0.480139 0.505029 -0.072827
C12   C     C_R   0.068633 0.578303 0.568947 -0.190526
H5    H     H_    0.897159 0.657431 0.620736 0.141989
C13   C     C_R   0.941008 0.581232 0.568987 -0.202548
C14   C     C_R   0.870400 0.490212 0.497458 -0.067791
C15   C     C_R   0.548203 0.066202 0.623479 0.116586
C16   C     C_R   0.533468 0.131728 0.499202 -0.063871
C17   C     C_R   0.540812 0.066578 0.371936 -0.166859
H6    H     H_    0.539469 0.114540 0.272765 0.157250
C18   C     C_R   0.536358 0.936897 0.371742 -0.194165
H7    H     H_    0.533170 0.888490 0.272368 0.158724
C19   C     C_R   0.525511 0.871851 0.498815 -0.083278
C20   C     C_R   0.542773 0.938388 0.622917 0.065293
C21   C     C_3   0.476970 0.929691 0.760138 -0.447044
C22   C     C_3   0.484666 0.071537 0.762649 -0.019529
H8    H     H_    0.380513 0.889969 0.749965 0.189644
H9    H     H_    0.533345 0.884985 0.841135 0.196588
H10   H     H_    0.392756 0.113594 0.758395 0.219095
C23   C     C_R   0.567682 0.588900 0.073895 0.219461
N1    N     N_R   0.500790 0.500930 0.147930 -0.188585
C24   C     C_R   0.422983 0.419530 0.071194 0.229069
C25   C     C_R   0.424036 0.420802 0.923202 -0.081840
H11   H     H_    0.364960 0.355372 0.864851 0.180856
N2    N     N_R   0.500790 0.500890 0.852020 -0.209698
C26   C     C_R   0.567658 0.588839 0.926810 0.238967
C27   C     C_3   0.704522 0.613798 0.920664 -0.495954
C28   C     C_3   0.704550 0.613672 0.079252 -0.490217
H12   H     H_    0.754507 0.535334 0.875078 0.226587
H13   H     H_    0.729678 0.706396 0.875226 0.188230
H14   H     H_    0.754390 0.535041 0.123708 0.225665
H15   H     H_    0.729832 0.706182 0.125410 0.192069
C29   C     C_3   0.570061 0.126174 0.876976 -0.859507
H16   H     H_    0.660781 0.081507 0.876926 0.240305
H17   H     H_    0.587249 0.227279 0.860160 0.256372
H18   H     H_    0.525455 0.111694 0.980582 0.227973
C30   C     C_3   0.334447 0.323412 0.134138 -0.760250
H19   H     H_    0.327377 0.326327 0.247066 0.295460
H20   H     H_    0.239664 0.336205 0.093522 0.198301
H21   H     H_    0.362591 0.229198 0.104054 0.205976
N3    N     N_R   0.216310 0.219844 0.470202 0.073415
O9    O     O_R   0.234119 0.240849 0.602704 -0.413842
O10   O     O_R   0.272728 0.128775 0.412248 -0.420257

loop_
_geom_bond_atom_site_label_1
_geom_bond_atom_site_label_2
_geom_bond_distance
_ccdc_geom_bond_type
O4    Cu2   1.958762 S    
C21   H8    1.112114 S    
C9    C10   1.418122 A    
C24   C30   1.502867 S    
Cu1   O5    1.955463 S    
C20   C21   1.492848 S    
Cu1   O7    1.958762 S    
C28   H15   1.111613 S    
C22   C29   1.531823 S    
C29   H18   1.109701 S    
Cu2   O8    1.959964 S    
C28   H14   1.111749 S    
C16   C17   1.407862 A    
N3    O9    1.301135 A    
C8    C9    1.415351 A    
C27   C28   1.518364 S    
C10   C11   1.425632 A    
Cu1   Cu2   2.693610 S    
C5    C10   1.426601 A    
O1    Cu1   1.953869 S    
C24   C25   1.417034 A    
Cu1   N2    2.023542 S    
C1    C16   1.451474 S    
C17   C18   1.396052 A    
C23   C28   1.490951 S    
O4    C2    1.300865 A    
C19   C20   1.393988 A    
C21   H9    1.112505 S    
O3    Cu1   1.959962 S    
C9    C14   1.414836 A    
O3    C2    1.292850 A    
C13   C14   1.393200 A    
C6    C7    1.384885 A    
O8    C4    1.290474 A    
C15   C22   1.498964 S    
C6    H2    1.082688 S    
C22   H10   1.111440 S    
C18   C19   1.408186 A    
C30   H21   1.110123 S    
C23   N1    1.364050 A    
C15   C16   1.399196 A    
O7    C4    1.296310 A    
C25   N2    1.352871 A    
C27   H12   1.111531 S    
C27   H13   1.111696 S    
C5    C6    1.405068 A    
C4    C14   1.445168 S    
C2    C11   1.456144 S    
Cu2   N1    2.024036 S    
C21   C22   1.527039 S    
C29   H16   1.111843 S    
C15   C20   1.375852 A    
C3    C19   1.449231 S    
C30   H20   1.111146 S    
C18   H7    1.083200 S    
O2    Cu2   1.955464 S    
H5    C13   1.084438 S    
C26   C27   1.491179 S    
O5    C3    1.297807 A    
C25   H11   1.083345 S    
N2    C26   1.366307 A    
H1    C12   1.084511 S    
O2    C1    1.298031 A    
C5    N3    1.434393 S    
C7    C8    1.386684 A    
C11   C12   1.397285 A    
C8    H4    1.077915 S    
C12   C13   1.380400 A    
Cu2   O6    1.953869 S    
C23   C26   1.408222 A    
N1    C24   1.394863 A    
C7    H3    1.083069 S    
C17   H6    1.083207 S    
C29   H17   1.108893 S    
C30   H19   1.084082 S    
O1    C1    1.294907 A    
O6    C3    1.293777 A    
N3    O10   1.300841 A    
