data_str_m2_o2_o25_f0_pcu.sym.226
_audit_creation_date              2012-12-10T18:38:35-0500
_audit_creation_method            fapswitch 2.2
_symmetry_space_group_name_H-M    P1
_symmetry_Int_Tables_number       1
_space_group_crystal_system       triclinic
_cell_length_a                    15.848805
_cell_length_b                    15.106227
_cell_length_c                    13.885644
_cell_angle_alpha                 90.401146
_cell_angle_beta                  90.884614
_cell_angle_gamma                 90.418361
_cell_volume                      3323.87145483

loop_
_atom_site_label
_atom_site_type_symbol
_atom_type_description
_atom_site_fract_x
_atom_site_fract_y
_atom_site_fract_z
_atom_type_partial_charge
C1    C     C_R   0.499693 0.330000 0.499702 0.833015
C2    C     C_R   0.499649 0.670063 0.500238 0.845568
C3    C     C_R   0.458994 0.187902 0.573092 -0.287950
C4    C     C_R   0.468487 0.811450 0.419246 -0.289760
C5    C     C_R   0.498958 0.233683 0.499189 -0.151200
C6    C     C_R   0.498495 0.766494 0.500356 -0.179894
C7    C     C_R   0.538747 0.187259 0.425422 -0.330320
C8    C     C_R   0.528531 0.813946 0.580608 -0.301383
C9    C     C_R   0.540710 0.094996 0.426500 0.450955
C10   C     C_R   0.531665 0.906093 0.578996 0.443985
C11   C     C_R   0.498175 0.048771 0.499188 -0.067277
C12   C     C_R   0.497922 0.951592 0.498992 -0.078261
C13   C     C_R   0.574823 0.523294 0.110045 0.368702
C14   C     C_R   0.462498 0.426326 0.888961 0.363683
C15   C     C_R   0.569268 0.529838 0.211224 -0.106818
C16   C     C_R   0.459029 0.433472 0.787692 -0.102043
C17   C     C_R   0.433163 0.465040 0.206692 0.599032
C18   C     C_R   0.543951 0.562796 0.793372 0.609960
C19   C     C_R   0.432625 0.466225 0.105195 -0.388398
C20   C     C_R   0.540905 0.563457 0.895017 -0.398525
C21   C     C_R   0.503828 0.493936 0.054385 0.000331
C22   C     C_R   0.502413 0.493979 0.945107 -0.002789
C23   C     C_R   0.339895 0.500028 0.499292 0.802826
C24   C     C_R   0.660189 0.501357 0.500588 0.812539
C25   C     C_3   0.972210 0.450430 0.564818 -0.383113
C26   C     C_3   0.028606 0.567482 0.430450 -0.482352
C27   C     C_3   0.025160 0.427439 0.475630 0.400270
C28   C     C_3   0.974558 0.590225 0.520027 0.385319
C29   C     C_1   0.250455 0.501427 0.497529 -0.174023
C30   C     C_1   0.749782 0.505300 0.501361 -0.193970
C31   C     C_3   0.030471 0.531460 0.584156 0.431021
C32   C     C_3   0.970356 0.486440 0.410998 0.409374
C33   C     C_3   0.083700 0.506988 0.496217 -0.065598
C34   C     C_3   0.916831 0.509947 0.499218 -0.035522
C35   C     C_1   0.175072 0.503456 0.496341 0.038602
C36   C     C_1   0.825256 0.508431 0.500541 0.056703
C37   C     C_R   0.456255 0.095783 0.572403 0.438419
C38   C     C_R   0.464816 0.903447 0.418990 0.461938
Cu1   Cu    Cu3+1 0.500000 0.499990 0.596430 0.965924
Cu2   Cu    Cu3+1 0.500000 0.500010 0.403570 0.963693
H1    H     H_    0.428033 0.223594 0.630385 0.162677
H2    H     H_    0.445709 0.775164 0.356342 0.186221
N1    N     N_R   0.500000 0.500020 0.258690 -0.228775
N2    N     N_R   0.500000 0.499980 0.741310 -0.224914
O1    O     O_R   0.500010 0.371450 0.581430 -0.598983
O2    O     O_R   0.499990 0.628550 0.418570 -0.585289
O3    O     O_R   0.500010 0.371460 0.418560 -0.583910
O4    O     O_R   0.499990 0.628540 0.581440 -0.529936
O5    O     O_R   0.379080 0.499990 0.581420 -0.581674
O6    O     O_R   0.620920 0.500010 0.418580 -0.590675
O7    O     O_R   0.379080 0.500000 0.418550 -0.520316
O8    O     O_R   0.620920 0.500000 0.581450 -0.567252
O9    O     O_3   0.056787 0.343396 0.450542 -0.616276
C39   C     C_3   0.990019 0.281595 0.437378 0.066292
H3    H     H_    0.000970 0.244973 0.369093 0.153109
H4    H     H_    0.926233 0.311962 0.430135 0.152340
C40   C     C_3   0.990459 0.215620 0.520374 -0.325507
H5    H     H_    0.051508 0.179819 0.522095 0.223284
H6    H     H_    0.983892 0.251583 0.589823 0.219251
C41   C     C_3   0.918343 0.148729 0.509420 -0.968668
H7    H     H_    0.856576 0.183002 0.506654 0.257020
H8    H     H_    0.918880 0.103750 0.572154 0.255989
H9    H     H_    0.925931 0.108854 0.442664 0.265216
O10   O     O_3   0.941558 0.672481 0.549690 -0.616033
C42   C     C_3   0.983634 0.742602 0.503592 0.046642
H10   H     H_    0.962301 0.745910 0.426953 0.159558
H11   H     H_    0.053435 0.734331 0.506949 0.125312
C43   C     C_3   0.962341 0.829582 0.554127 -0.343519
H12   H     H_    0.893227 0.841018 0.549219 0.223745
H13   H     H_    0.980860 0.825499 0.631499 0.214159
C44   C     C_3   0.008807 0.907450 0.509330 -0.939690
H14   H     H_    0.077962 0.896844 0.513388 0.260963
H15   H     H_    0.994269 0.968935 0.549585 0.267004
H16   H     H_    0.988965 0.915524 0.432857 0.265366
O11   O     O_3   0.363163 0.433368 0.253536 -0.586012
C45   C     C_3   0.360060 0.340111 0.245790 0.039967
H17   H     H_    0.423121 0.310031 0.260146 0.149717
H18   H     H_    0.337657 0.320096 0.172394 0.137506
C46   C     C_3   0.298074 0.304613 0.319798 -0.258342
H19   H     H_    0.317629 0.327755 0.392964 0.221251
H20   H     H_    0.233881 0.330403 0.303760 0.223913
C47   C     C_3   0.295318 0.203756 0.319306 -0.971017
H21   H     H_    0.275052 0.178381 0.247267 0.256291
H22   H     H_    0.249799 0.180139 0.373627 0.260341
H23   H     H_    0.358664 0.177332 0.337878 0.260703
O12   O     O_3   0.586663 0.629024 0.745714 -0.589619
C48   C     C_3   0.674031 0.623102 0.766598 0.034983
H24   H     H_    0.698317 0.556646 0.745945 0.151187
H25   H     H_    0.687581 0.635179 0.844490 0.143494
C49   C     C_3   0.720861 0.693669 0.709682 -0.348449
H26   H     H_    0.709064 0.683170 0.631273 0.225720
H27   H     H_    0.696902 0.760041 0.730084 0.215702
C50   C     C_3   0.815561 0.690894 0.730554 -0.849122
H28   H     H_    0.828661 0.700389 0.808775 0.241873
H29   H     H_    0.847182 0.745043 0.691174 0.265772
H30   H     H_    0.841849 0.626490 0.706814 0.283581
H31   H     H_    0.375677 0.445877 0.066962 0.212187
H32   H     H_    0.568517 0.618791 0.934364 0.208964
H33   H     H_    0.948209 0.404310 0.620046 0.166678
H34   H     H_    0.053601 0.613696 0.375889 0.158778
O13   O     O_3   0.933732 0.461659 0.321403 -0.618952
C51   C     C_3   0.996924 0.446855 0.252269 0.076778
H35   H     H_    0.983206 0.382218 0.216559 0.151494
H36   H     H_    0.062294 0.442213 0.282911 0.156786
C52   C     C_3   0.993940 0.519735 0.176376 -0.347525
H37   H     H_    0.929945 0.521923 0.142849 0.231017
H38   H     H_    0.007089 0.584915 0.211117 0.215158
C53   C     C_3   0.058530 0.503760 0.097871 -0.911983
H39   H     H_    0.123359 0.503029 0.129457 0.264124
H40   H     H_    0.054774 0.557628 0.044000 0.258153
H41   H     H_    0.045487 0.439638 0.060702 0.256776
O14   O     O_3   0.063502 0.549612 0.677355 -0.596315
C54   C     C_3   0.104004 0.633131 0.679988 0.074885
H42   H     H_    0.056004 0.685489 0.690115 0.174861
H43   H     H_    0.140012 0.646729 0.613344 0.123087
C55   C     C_3   0.166111 0.636323 0.765172 -0.323732
H44   H     H_    0.131655 0.624371 0.833052 0.224859
H45   H     H_    0.213788 0.583341 0.756459 0.235365
C56   C     C_3   0.211259 0.725819 0.772039 -0.923356
H46   H     H_    0.247264 0.738575 0.705457 0.260142
H47   H     H_    0.256046 0.725991 0.834321 0.266031
H48   H     H_    0.164836 0.779619 0.782562 0.255060
O15   O     O_3   0.417005 0.052865 0.647404 -0.576709
C57   C     C_3   0.334730 0.027209 0.617725 0.036179
H49   H     H_    0.337768 0.969191 0.568288 0.141606
H50   H     H_    0.300666 0.082413 0.581251 0.126832
C58   C     C_3   0.284721 0.999875 0.705950 -0.290771
H51   H     H_    0.318756 0.946364 0.744636 0.236396
H52   H     H_    0.279113 0.057580 0.755504 0.216448
C59   C     C_3   0.196615 0.966618 0.677276 -0.951312
H53   H     H_    0.161417 0.018719 0.637774 0.259495
H54   H     H_    0.161132 0.949190 0.742878 0.259881
H55   H     H_    0.201099 0.906661 0.630899 0.256910
O16   O     O_3   0.436678 0.944362 0.335592 -0.568460
C60   C     C_3   0.354006 0.977138 0.347023 0.062095
H56   H     H_    0.340134 0.019280 0.283647 0.186209
H57   H     H_    0.348925 0.020812 0.411179 0.107264
C61   C     C_3   0.287408 0.902789 0.348927 -0.392568
H58   H     H_    0.294239 0.859553 0.284471 0.234563
H59   H     H_    0.296355 0.861952 0.414476 0.203523
C62   C     C_3   0.198425 0.940631 0.349713 -0.925243
H60   H     H_    0.189945 0.982725 0.414755 0.256111
H61   H     H_    0.151638 0.885591 0.350696 0.256868
H62   H     H_    0.186662 0.980877 0.284287 0.261650
H63   H     H_    0.570249 0.222415 0.368311 0.167337
H64   H     H_    0.552720 0.779801 0.643369 0.211828
O17   O     O_3   0.582288 0.049631 0.354773 -0.570260
C63   C     C_3   0.670500 0.051942 0.372711 0.042271
H65   H     H_    0.689882 0.084091 0.442466 0.113384
H66   H     H_    0.700583 0.090363 0.314369 0.157191
C64   C     C_3   0.703923 0.957216 0.370648 -0.307760
H67   H     H_    0.669970 0.916583 0.424252 0.208023
H68   H     H_    0.691946 0.927720 0.298115 0.236491
C65   C     C_3   0.798259 0.954468 0.393716 -0.963616
H69   H     H_    0.833805 0.995157 0.341560 0.259447
H70   H     H_    0.820560 0.885098 0.388876 0.265043
H71   H     H_    0.810984 0.979614 0.467944 0.265092
O18   O     O_3   0.567040 0.951298 0.656744 -0.573075
C66   C     C_3   0.655258 0.956192 0.644333 0.032842
H72   H     H_    0.669923 0.004884 0.587265 0.144558
H73   H     H_    0.682312 0.890728 0.624176 0.129587
C67   C     C_3   0.697363 0.987025 0.738431 -0.308088
H74   H     H_    0.674426 0.054179 0.757336 0.223324
H75   H     H_    0.680285 0.940878 0.797142 0.227201
C68   C     C_3   0.793197 0.990036 0.729629 -0.944188
H76   H     H_    0.817816 0.923096 0.712796 0.255950
H77   H     H_    0.822084 0.013284 0.798713 0.260360
H78   H     H_    0.811489 0.036441 0.671833 0.255462
O19   O     O_3   0.649514 0.548934 0.067721 -0.624322
C69   C     C_3   0.696434 0.473185 0.041905 0.032218
H79   H     H_    0.743367 0.494352 0.987921 0.167072
H80   H     H_    0.656806 0.420933 0.006179 0.122580
C70   C     C_3   0.743856 0.435038 0.129345 -0.340579
H81   H     H_    0.779909 0.488691 0.166948 0.243113
H82   H     H_    0.698047 0.406615 0.180615 0.206583
C71   C     C_3   0.804363 0.362168 0.099248 -0.916993
H83   H     H_    0.769342 0.308034 0.061204 0.249299
H84   H     H_    0.835786 0.334385 0.164215 0.263360
H85   H     H_    0.853472 0.389200 0.051143 0.254872
O20   O     O_3   0.423169 0.354965 0.931587 -0.625343
C72   C     C_3   0.481777 0.285803 0.945782 0.039623
H86   H     H_    0.463105 0.250061 0.011889 0.168235
H87   H     H_    0.547816 0.309650 0.959032 0.115179
C73   C     C_3   0.478480 0.220696 0.860480 -0.347351
H88   H     H_    0.411906 0.200950 0.844990 0.236918
H89   H     H_    0.504200 0.253037 0.795544 0.207739
C74   C     C_3   0.530003 0.137887 0.881194 -0.873219
H90   H     H_    0.597229 0.155846 0.894952 0.239052
H91   H     H_    0.526119 0.092468 0.818024 0.299800
H92   H     H_    0.504867 0.102819 0.944799 0.256560
H93   H     H_    0.622543 0.556367 0.251756 0.175835
H94   H     H_    0.424809 0.383966 0.745849 0.160238

loop_
_geom_bond_atom_site_label_1
_geom_bond_atom_site_label_2
_ccdc_geom_bond_type
C25   C31   S    
Cu2   O3    S    
C48   H24   S    
C24   O8    A    
C50   H28   S    
C60   C61   S    
O19   C69   S    
O17   C63   S    
C45   C46   S    
C17   N1    A    
C19   H31   S    
C60   H56   S    
C72   H86   S    
C27   C33   S    
Cu2   O2    S    
C52   H38   S    
C68   H76   S    
C4    H2    S    
C41   H9    S    
C1    C5    S    
C23   C29   S    
C19   C21   A    
C63   H66   S    
C67   H74   S    
C62   H61   S    
C40   H6    S    
C69   H79   S    
C73   H88   S    
C51   C52   S    
C41   H8    S    
C64   C65   S    
C11   C37   A    
C74   H92   S    
C16   H94   S    
C33   C35   S    
C37   O15   S    
C23   O7    A    
C25   H33   S    
C71   H85   S    
C73   H89   S    
C43   H12   S    
C42   H11   S    
C31   O14   S    
C63   C64   S    
C53   H39   S    
C20   H32   S    
C16   N2    A    
C65   H70   S    
C25   C34   S    
Cu1   O1    S    
C54   C55   S    
C13   O19   S    
Cu1   O8    S    
C28   C34   S    
C68   H77   S    
C70   H81   S    
C21   C22   S    
C64   H68   S    
C2    C6    S    
C18   C20   A    
O14   C54   S    
C67   H75   S    
C70   H82   S    
C24   O6    A    
C52   C53   S    
C39   H4    S    
C31   C33   S    
O13   C51   S    
O15   C57   S    
C63   H65   S    
C65   H71   S    
C4    C6    A    
C62   H62   S    
Cu1   Cu2   S    
C46   H20   S    
C26   C32   S    
C1    O3    A    
C40   C41   S    
C6    C8    A    
C2    O4    A    
O9    C39   S    
C9    O17   S    
C2    O2    A    
C41   H7    S    
C32   C34   S    
C59   H54   S    
O11   C45   S    
C58   H52   S    
C18   N2    A    
C44   H16   S    
C67   C68   S    
C5    C7    A    
C26   C33   S    
C49   H27   S    
C66   H72   S    
C64   H67   S    
C42   C43   S    
Cu2   N1    S    
C66   H73   S    
C66   C67   S    
C13   C21   A    
C18   O12   S    
C45   H17   S    
C51   H36   S    
C9    C11   A    
C65   H69   S    
O16   C60   S    
C56   H47   S    
C10   C12   A    
C55   H45   S    
C57   C58   S    
C28   O10   S    
C43   H13   S    
C71   H83   S    
Cu1   O5    S    
C20   C22   A    
C47   H21   S    
C50   H30   S    
C47   H22   S    
C13   C15   A    
O18   C66   S    
C14   C16   A    
C59   H55   S    
C49   H26   S    
C58   H51   S    
C47   H23   S    
O20   C72   S    
C49   C50   S    
C57   H50   S    
C54   H42   S    
C72   C73   S    
C60   H57   S    
C15   H93   S    
C39   H3    S    
C3    H1    S    
C27   C32   S    
O12   C48   S    
C56   H48   S    
C28   C31   S    
C8    H64   S    
C45   H18   S    
C3    C5    A    
C61   C62   S    
C46   C47   S    
C70   C71   S    
C56   H46   S    
C53   H41   S    
Cu1   N2    S    
C61   H59   S    
C25   C27   S    
Cu2   O7    S    
C52   H37   S    
C29   C35   T    
C26   C28   S    
C68   H78   S    
C55   C56   S    
C30   C36   T    
C73   C74   S    
O10   C42   S    
C14   C22   A    
C48   H25   S    
C59   H53   S    
C58   C59   S    
C15   N1    A    
C74   H90   S    
C62   H60   S    
C1    O1    A    
C40   H5    S    
C50   H29   S    
C69   H80   S    
C43   C44   S    
Cu2   O6    S    
C71   H84   S    
C17   C19   A    
C53   H40   S    
C55   H44   S    
C34   C36   S    
C38   O16   S    
C12   C38   A    
C51   H35   S    
C24   C30   S    
C74   H91   S    
C23   O5    A    
C61   H58   S    
C46   H19   S    
C7    C9    A    
C10   O18   S    
C72   H87   S    
C44   H14   S    
C3    C37   A    
C8    C10   A    
C42   H10   S    
C48   C49   S    
C44   H15   S    
C17   O11   S    
C32   O13   S    
Cu1   O4    S    
C27   O9    S    
C7    H63   S    
C4    C38   A    
C69   C70   S    
C14   O20   S    
C11   C12   S    
C26   H34   S    
C57   H49   S    
C54   H43   S    
C39   C40   S    
