data_str_m2_o1_o16_f0_pcu.sym.227
_audit_creation_date              2012-12-10T17:57:27-0500
_audit_creation_method            fapswitch 2.2
_symmetry_space_group_name_H-M    P1
_symmetry_Int_Tables_number       1
_space_group_crystal_system       triclinic
_cell_length_a                    9.623491
_cell_length_b                    10.822943
_cell_length_c                    13.679811
_cell_angle_alpha                 93.105014
_cell_angle_beta                  74.090039
_cell_angle_gamma                 90.622535
_cell_volume                      1368.21104212

loop_
_atom_site_label
_atom_site_type_symbol
_atom_type_description
_atom_site_fract_x
_atom_site_fract_y
_atom_site_fract_z
_atom_type_partial_charge
C1    C     C_R   0.499561 0.737692 0.502394 0.774709
C2    C     C_R   0.455211 0.531208 0.972699 0.089060
C3    C     C_R   0.494911 0.498067 0.867040 0.066156
C4    C     C_R   0.556327 0.515301 0.029029 0.007493
C5    C     C_R   0.704594 0.513159 0.977140 0.062555
C6    C     C_R   0.745817 0.495577 0.871180 -0.005273
C7    C     C_R   0.641386 0.465466 0.821218 -0.271709
C8    C     C_R   0.514058 0.492890 0.133639 0.185369
C9    C     C_R   0.764195 0.518524 0.137766 -0.254433
C10   C     C_R   0.388608 0.505675 0.811906 -0.091037
C11   C     C_R   0.617001 0.938328 0.521645 -0.167871
C12   C     C_R   0.424924 0.497134 0.699097 0.777972
C13   C     C_R   0.614795 0.066463 0.524976 -0.189135
C14   C     C_R   0.494687 0.129066 0.512147 -0.033539
C15   C     C_R   0.371528 0.062726 0.506626 -0.161690
C16   C     C_R   0.372955 0.934875 0.503630 -0.187711
C17   C     C_R   0.497266 0.871945 0.508344 -0.017407
C18   C     C_R   0.904120 0.584261 0.559452 -0.062061
C19   C     C_R   0.053754 0.588311 0.555016 0.001705
C20   C     C_R   0.093010 0.411964 0.443056 0.031803
C21   C     C_R   0.949158 0.421857 0.434301 0.325160
C22   C     C_R   0.497893 0.262690 0.504376 0.800708
C23   C     C_R   0.576208 0.498918 0.301118 0.844717
C24   C     C_R   0.807448 0.517452 0.032349 -0.164014
C25   C     C_R   0.618108 0.503318 0.189501 -0.089872
C26   C     C_R   0.248089 0.542519 0.864985 -0.179642
C27   C     C_R   0.215331 0.587124 0.965762 -0.164969
C28   C     C_R   0.318467 0.583744 0.018787 -0.170359
Cu1   Cu    Cu3+1 0.359340 0.499980 0.500000 0.999613
Cu2   Cu    Cu3+1 0.640660 0.500020 0.500000 0.966086
H1    H     H_    0.846453 0.524386 0.178227 0.173304
H2    H     H_    0.706712 0.115942 0.538023 0.158317
H3    H     H_    0.274350 0.109409 0.504537 0.190225
H4    H     H_    0.277102 0.885717 0.496842 0.152798
H5    H     H_    0.831222 0.651856 0.607895 0.142232
H6    H     H_    0.093271 0.660860 0.597469 0.121687
H7    H     H_    0.921296 0.514185 0.994002 0.148265
H8    H     H_    0.166250 0.545390 0.825916 0.194845
H9    H     H_    0.292087 0.626067 0.094967 0.126511
H10   H     H_    0.111187 0.628512 0.002401 0.153491
H11   H     H_    0.681592 0.423614 0.745868 0.205754
H12   H     H_    0.712027 0.891609 0.529522 0.152333
N1    N     N_R   0.147940 0.499970 0.499970 -0.204344
N2    N     N_R   0.852060 0.500060 0.499990 -0.182766
O1    O     O_R   0.381250 0.680340 0.500010 -0.603137
O2    O     O_R   0.618820 0.680370 0.500010 -0.591347
O3    O     O_R   0.323240 0.499950 0.650980 -0.562539
O4    O     O_R   0.560810 0.499980 0.650980 -0.600211
O5    O     O_R   0.381180 0.319630 0.499990 -0.550227
O6    O     O_R   0.618750 0.319660 0.499990 -0.584982
O7    O     O_R   0.439190 0.500020 0.349020 -0.536132
O8    O     O_R   0.676760 0.500050 0.349020 -0.566131
C29   C     C_2   0.172940 0.297638 0.396888 0.839158
O9    O     O_2   0.296289 0.301237 0.343092 -0.562916
O10   O     O_R   0.104152 0.183340 0.413806 -0.816551
H13   H     H_    0.163989 0.112523 0.371906 0.315791
N3    N     N_2   0.918928 0.376706 0.342371 -0.410959
H14   H     H_    0.993271 0.403646 0.277247 0.204195
C30   C     C_3   0.871482 0.250324 0.334026 -0.550432
H15   H     H_    0.954803 0.195913 0.275704 0.196370
H16   H     H_    0.770621 0.249178 0.309600 0.222442
H17   H     H_    0.851438 0.205473 0.407106 0.250650
C31   C     C_2   0.890947 0.527088 0.809969 0.782223
O11   O     O_2   0.964597 0.450889 0.748920 -0.599135
O12   O     O_R   0.938405 0.648694 0.819182 -0.780097
H18   H     H_    0.032561 0.667255 0.767559 0.311451
N4    N     N_2   0.377657 0.436934 0.177478 -0.386889
H19   H     H_    0.291544 0.495224 0.209723 0.240039
C32   C     C_3   0.345651 0.321523 0.128659 -0.578310
H20   H     H_    0.241745 0.283593 0.173861 0.216171
H21   H     H_    0.432661 0.252737 0.123146 0.236980
H22   H     H_    0.333537 0.334679 0.051791 0.209487

loop_
_geom_bond_atom_site_label_1
_geom_bond_atom_site_label_2
_ccdc_geom_bond_type
C6    C31   S    
C32   H22   S    
C2    C4    A    
O10   H13   S    
C31   O12   S    
C9    C24   A    
C21   N3    S    
C6    C7    A    
C26   H8    S    
C18   N2    A    
C21   N2    A    
C18   H5    S    
C13   H2    S    
C1    C17   S    
C12   O4    A    
C4    C8    A    
C27   H10   S    
C22   O6    A    
Cu2   N2    S    
C10   C26   A    
C29   O10   S    
C2    C3    A    
C23   O8    A    
C9    C25   A    
C30   H15   S    
C3    C10   A    
Cu1   O5    S    
C29   O9    D    
Cu1   N1    S    
C8    C25   A    
C11   C13   A    
C1    O1    A    
N3    H14   S    
C32   H20   S    
C5    C24   A    
C10   C12   S    
Cu1   O3    S    
C12   O3    A    
C5    C6    A    
Cu2   O4    S    
C19   N1    A    
C24   H7    S    
C3    C7    A    
C19   H6    S    
C7    H11   S    
C26   C27   A    
C14   C22   S    
Cu2   O6    S    
C1    O2    A    
C30   H16   S    
Cu1   O1    S    
N3    C30   S    
C15   C16   A    
C9    H1    S    
Cu1   Cu2   S    
N4    H19   S    
C4    C5    A    
C20   N1    A    
C18   C19   A    
C20   C21   A    
C8    N4    S    
O12   H18   S    
Cu1   O7    S    
C22   O5    A    
C27   C28   A    
C32   H21   S    
Cu2   O8    S    
C14   C15   A    
C16   C17   A    
C30   H17   S    
C2    C28   A    
C11   H12   S    
C28   H9    S    
C16   H4    S    
C23   C25   S    
C13   C14   A    
C23   O7    A    
Cu2   O2    S    
C11   C17   A    
C31   O11   D    
C15   H3    S    
C20   C29   S    
N4    C32   S    
