data_str_m2_o4_o10_f0_pcu.sym.219
_audit_creation_date              2012-12-10T18:57:12-0500
_audit_creation_method            fapswitch 2.2
_symmetry_space_group_name_H-M    P1
_symmetry_Int_Tables_number       1
_space_group_crystal_system       triclinic
_cell_length_a                    8.728078
_cell_length_b                    10.811192
_cell_length_c                    9.545501
_cell_angle_alpha                 89.993325
_cell_angle_beta                  97.661485
_cell_angle_gamma                 90.012169
_cell_volume                      892.681590515

loop_
_atom_site_label
_atom_site_type_symbol
_atom_type_description
_atom_site_fract_x
_atom_site_fract_y
_atom_site_fract_z
_atom_type_partial_charge
C1    C     C_R   0.507012 0.262421 0.500624 0.790569
C2    C     C_R   0.579657 0.932980 0.395036 -0.260432
C3    C     C_R   0.517994 0.870391 0.503462 -0.108151
C4    C     C_R   0.482496 0.936797 0.619687 0.122567
C5    C     C_3   0.340291 0.932199 0.690841 -0.461222
C6    C     C_3   0.342276 0.072544 0.689265 -0.475888
C7    C     C_R   0.561754 0.597150 0.080946 0.256267
C8    C     C_R   0.424573 0.410955 0.065268 -0.052218
C9    C     C_R   0.424474 0.411015 0.916382 -0.084740
C10   C     C_R   0.561495 0.597183 0.933602 0.258924
C11   C     C_3   0.723814 0.642536 0.946341 -0.499129
C12   C     C_R   0.204032 0.500434 0.464106 0.882383
C13   C     C_3   0.724885 0.641517 0.105398 -0.503925
C14   C     C_R   0.502448 0.737553 0.500378 0.806223
C15   C     C_R   0.796117 0.500000 0.536144 0.872965
C16   C     C_2   0.038575 0.502058 0.444788 -0.382562
C17   C     C_2   0.961903 0.499429 0.556496 -0.379434
C18   C     C_R   0.485092 0.063833 0.618936 0.105327
C19   C     C_R   0.526465 0.129113 0.503481 -0.145097
C20   C     C_R   0.587137 0.062557 0.394604 -0.025535
Cu1   Cu    Cu3+1 0.499990 0.499980 0.640670 0.932020
Cu2   Cu    Cu3+1 0.500010 0.500020 0.359330 0.943595
H1    H     H_    0.979728 0.505578 0.337687 0.161317
H2    H     H_    0.365501 0.337875 0.853551 0.133893
H3    H     H_    0.804452 0.573819 0.909705 0.215473
H4    H     H_    0.731201 0.737111 0.902011 0.195457
H5    H     H_    0.804750 0.571210 0.158430 0.213145
H6    H     H_    0.735213 0.735307 0.153207 0.189122
H7    H     H_    0.021106 0.496452 0.664147 0.172816
H8    H     H_    0.620291 0.881357 0.309955 0.157143
H9    H     H_    0.239521 0.891576 0.622666 0.194957
H10   H     H_    0.363701 0.892505 0.799042 0.194625
H11   H     H_    0.243034 0.113713 0.619574 0.193545
H12   H     H_    0.364886 0.113341 0.796773 0.183750
H13   H     H_    0.366049 0.337482 0.113807 0.139036
N1    N     N_R   0.500980 0.500930 0.148050 -0.184058
N2    N     N_R   0.500990 0.500890 0.852140 -0.187080
O1    O     O_R   0.500000 0.319640 0.618810 -0.586254
O2    O     O_R   0.500020 0.319680 0.381230 -0.577570
O3    O     O_R   0.274830 0.499980 0.591380 -0.576787
O4    O     O_R   0.274850 0.500020 0.353800 -0.591432
O5    O     O_R   0.499980 0.680320 0.618770 -0.581312
O6    O     O_R   0.500000 0.680360 0.381190 -0.586316
O7    O     O_R   0.725150 0.499980 0.646200 -0.593607
O8    O     O_R   0.725170 0.500020 0.408620 -0.573196
C21   C     C_R   0.658122 0.123451 0.279737 0.149589
C22   C     C_R   0.599224 0.101939 0.137425 -0.178947
C23   C     C_R   0.669331 0.156540 0.029286 -0.144815
C24   C     C_R   0.798839 0.232206 0.062126 -0.103887
C25   C     C_R   0.859428 0.252542 0.203163 -0.134015
C26   C     C_R   0.789384 0.198780 0.311845 -0.091260
H14   H     H_    0.498949 0.043359 0.110363 0.123948
H15   H     H_    0.623804 0.140003 0.919946 0.137889
H16   H     H_    0.852987 0.274263 0.978254 0.122842
H17   H     H_    0.961763 0.308846 0.227967 0.119371
H18   H     H_    0.838128 0.214771 0.420742 0.100114

loop_
_geom_bond_atom_site_label_1
_geom_bond_atom_site_label_2
_ccdc_geom_bond_type
C25   H17   S    
C12   O3    A    
C7    C10   A    
C13   H6    S    
C22   H14   S    
Cu1   O7    S    
Cu2   N1    S    
C7    N1    A    
C19   C20   A    
C6    H11   S    
C2    H8    S    
C14   O5    A    
C5    H10   S    
C4    C18   A    
C14   O6    A    
C9    N2    A    
C2    C3    A    
Cu1   N2    S    
C9    H2    S    
C24   H16   S    
Cu1   Cu2   S    
C4    C5    S    
C11   C13   S    
C5    C6    S    
C3    C14   S    
C1    O1    A    
C10   N2    A    
Cu2   O2    S    
C23   C24   A    
C15   O7    A    
C24   C25   A    
C16   H1    S    
C23   H15   S    
C6    C18   S    
C1    C19   S    
Cu2   O4    S    
C16   C17   D    
C10   C11   S    
C1    O2    A    
C2    C20   A    
C3    C4    A    
C22   C23   A    
C12   C16   S    
C7    C13   S    
Cu2   O8    S    
C17   H7    S    
C12   O4    A    
C26   H18   S    
C8    N1    A    
C15   C17   S    
C18   C19   A    
C11   H3    S    
C21   C22   A    
C13   H5    S    
Cu1   O5    S    
C11   H4    S    
C25   C26   A    
C21   C26   A    
C8    H13   S    
Cu2   O6    S    
C20   C21   S    
Cu1   O1    S    
C6    H12   S    
C8    C9    A    
C5    H9    S    
C15   O8    A    
Cu1   O3    S    
