data_str_m2_o4_o4_f0_pcu.sym.103
_audit_creation_date              2013-03-05T16:33:32-0500
_audit_creation_method            fapswitch 2.2
_symmetry_space_group_name_H-M    P1
_symmetry_Int_Tables_number       1
_space_group_crystal_system       triclinic
_cell_length_a                    10.89279
_cell_length_b                    10.914933
_cell_length_c                    9.541009
_cell_angle_alpha                 91.735494
_cell_angle_beta                  90.257177
_cell_angle_gamma                 90.670952
_cell_volume                      1133.75802099

loop_
_atom_site_label
_atom_site_type_symbol
_atom_site_description
_atom_site_fract_x
_atom_site_fract_y
_atom_site_fract_z
_atom_type_partial_charge
O1    O     O_R   0.500000 0.319640 0.618810 -0.566325
O2    O     O_R   0.500010 0.319680 0.381230 -0.588624
C1    C     C_R   0.493644 0.262882 0.497661 0.784976
O3    O     O_R   0.319650 0.499970 0.618810 -0.583104
O4    O     O_R   0.319660 0.500010 0.381230 -0.622702
C2    C     C_R   0.262636 0.504254 0.498974 0.779687
Cu1   Cu    Cu3+1 0.499990 0.499980 0.640670 0.972525
Cu2   Cu    Cu3+1 0.500010 0.500020 0.359330 0.970209
O5    O     O_R   0.499990 0.680320 0.618770 -0.585627
O6    O     O_R   0.500000 0.680360 0.381190 -0.592460
O7    O     O_R   0.680340 0.499990 0.618770 -0.569620
O8    O     O_R   0.680350 0.500030 0.381190 -0.565836
C3    C     C_R   0.498198 0.737526 0.501520 0.829454
C4    C     C_R   0.737120 0.498799 0.500154 0.845784
C5    C     C_R   0.062891 0.499452 0.617296 0.089049
C6    C     C_R   0.129615 0.509914 0.494388 -0.184906
C7    C     C_R   0.061046 0.519589 0.366702 -0.033956
C8    C     C_R   0.932168 0.510188 0.370717 -0.114062
H1    H     H_    0.880795 0.513542 0.273773 0.238139
C9    C     C_R   0.869388 0.500276 0.498391 -0.150012
C10   C     C_R   0.939293 0.495801 0.619410 0.069562
C11   C     C_3   0.932930 0.481170 0.773812 -0.348403
C12   C     C_3   0.074220 0.484593 0.771625 -0.378966
H2    H     H_    0.891978 0.561993 0.828469 0.229095
H3    H     H_    0.893945 0.390715 0.802006 0.231263
H4    H     H_    0.114994 0.567126 0.825808 0.222766
H5    H     H_    0.116242 0.395861 0.798135 0.194760
C13   C     C_R   0.514110 0.068288 0.612939 0.021085
C14   C     C_R   0.484856 0.130211 0.493106 -0.191750
C15   C     C_R   0.449888 0.057917 0.371968 -0.002589
C16   C     C_R   0.455438 0.928758 0.377244 -0.161248
H6    H     H_    0.428915 0.873956 0.285274 0.178484
C17   C     C_R   0.490052 0.870198 0.501280 -0.105628
C18   C     C_R   0.514666 0.944992 0.618381 0.086050
C19   C     C_3   0.554284 0.949047 0.768558 -0.515459
C20   C     C_3   0.553857 0.089320 0.761058 -0.135767
H7    H     H_    0.480460 0.916115 0.838477 0.219295
H8    H     H_    0.646892 0.909465 0.783157 0.198567
H9    H     H_    0.482157 0.134181 0.826909 0.201642
C21   C     C_R   0.594363 0.554580 0.076375 0.222877
N1    N     N_R   0.500790 0.500930 0.147930 -0.228120
C22   C     C_R   0.413384 0.436767 0.071666 -0.055817
H10   H     H_    0.341499 0.388018 0.125170 0.144254
C23   C     C_R   0.413647 0.436368 0.922863 -0.022816
H11   H     H_    0.342641 0.386368 0.865033 0.134316
N2    N     N_R   0.500790 0.500890 0.852020 -0.187273
C24   C     C_R   0.594244 0.554028 0.928256 0.255937
C25   C     C_3   0.627024 0.685826 0.925051 -0.581651
C26   C     C_3   0.627159 0.688014 0.083905 0.125104
H12   H     H_    0.717079 0.702658 0.874561 0.225264
H13   H     H_    0.549158 0.735927 0.881980 0.194585
H14   H     H_    0.554163 0.746254 0.130820 0.131638
C27   C     C_2   0.117389 0.545208 0.228996 0.426268
H15   H     H_    0.196519 0.605859 0.222015 0.086569
O9    O     O_2   0.073465 0.500953 0.120585 -0.544334
C28   C     C_2   0.679253 0.147544 0.773667 0.451718
H16   H     H_    0.754695 0.113241 0.710259 0.062525
O10   O     O_2   0.696883 0.234182 0.855411 -0.540671
N3    N     N_R   0.748501 0.711969 0.145860 0.151014
O11   O     O_R   0.758850 0.783360 0.257020 -0.354651
O12   O     O_R   0.847078 0.667432 0.088051 -0.376460
C29   C     C_2   0.400485 0.112029 0.242863 0.404359
H17   H     H_    0.353703 0.198973 0.247872 0.075070
O13   O     O_2   0.408751 0.058102 0.129282 -0.565051

loop_
_geom_bond_atom_site_label_1
_geom_bond_atom_site_label_2
_geom_bond_distance
_ccdc_geom_bond_type
C21   C24   1.413037 A    
C16   C17   1.413751 A    
C3    C17   1.451928 S    
C14   C15   1.427355 A    
C20   C28   1.502537 S    
C18   C19   1.493780 S    
C12   H5    1.111614 S    
O2    C1    1.290179 A    
O4    Cu2   1.976527 S    
N1    C22   1.368832 A    
C24   C25   1.479414 S    
C26   N3    1.463000 S    
C5    C10   1.346708 A    
Cu2   O8    1.974514 S    
C26   H14   1.111071 S    
C5    C12   1.490958 S    
C7    C8    1.407164 A    
C13   C18   1.348416 A    
N3    O11   1.300599 A    
O1    Cu1   1.973128 S    
C10   C11   1.488422 S    
C9    C10   1.382676 A    
Cu1   O7    1.976527 S    
C1    C14   1.449466 S    
C11   C12   1.539316 S    
C29   H17   1.082285 S    
C22   C23   1.419618 A    
C25   H13   1.099394 S    
O3    Cu1   1.974514 S    
O4    C2    1.285996 A    
C25   H12   1.110615 S    
C25   C26   1.515081 S    
C19   H7    1.110609 S    
O8    C4    1.290628 A    
O6    C3    1.290303 A    
C17   C18   1.386927 A    
C8    C9    1.406041 A    
C27   O9    1.221474 D    
C15   C29   1.483681 S    
C15   C16   1.414168 A    
Cu2   O6    1.973128 S    
O7    C4    1.291921 A    
C11   H2    1.110223 S    
N3    O12   1.301849 A    
C22   H10   1.080339 S    
C2    C6    1.451533 S    
C21   C26   1.495054 S    
Cu1   N2    2.016195 S    
C7    C27   1.485445 S    
Cu1   Cu2   2.684282 S    
C19   H8    1.111869 S    
C28   H16   1.086019 S    
C13   C20   1.486544 S    
C4    C9    1.440845 S    
O3    C2    1.301030 A    
C8    H1    1.080692 S    
C12   H4    1.111928 S    
Cu1   O5    1.985742 S    
C21   N1    1.365430 A    
O5    C3    1.297726 A    
N2    C24   1.362237 A    
C13   C14   1.383527 A    
C29   O13   1.221647 D    
C19   C20   1.534958 S    
Cu2   N1    2.017349 S    
C27   H15   1.084179 S    
C28   O10   1.220310 D    
C20   H9    1.113201 S    
C5    C6    1.389333 A    
O2    Cu2   1.985740 S    
C23   H11   1.080994 S    
C16   H6    1.083104 S    
C23   N2    1.368509 A    
C6    C7    1.433397 A    
O1    C1    1.295978 A    
C11   H3    1.111204 S    
