data_str_m2_o1_o25_f0_pcu.sym.15
_audit_creation_date              2012-10-26T21:06:29-0400
_audit_creation_method            fapswitch 2.2
_symmetry_space_group_name_H-M    P1
_symmetry_Int_Tables_number       1
_space_group_crystal_system       triclinic
_cell_length_a                    15.883918
_cell_length_b                    10.870549
_cell_length_c                    9.511158
_cell_angle_alpha                 90.228145
_cell_angle_beta                  92.226595
_cell_angle_gamma                 91.307454
_cell_volume                      1640.57560547

loop_
_atom_site_label
_atom_site_type_symbol
_atom_type_description
_atom_site_fract_x
_atom_site_fract_y
_atom_site_fract_z
_atom_type_partial_charge
C1    C     C_R   0.502499 0.262298 0.500319 0.541070
C2    C     C_R   0.551849 0.578596 0.078557 -0.014655
C3    C     C_R   0.339791 0.499504 0.497258 0.542945
C4    C     C_R   0.660190 0.501399 0.502909 0.535983
C5    C     C_3   0.973892 0.385000 0.563127 0.248740
C6    C     C_3   0.025364 0.604542 0.465458 0.211607
C7    C     C_3   0.021053 0.404758 0.426094 0.234796
C8    C     C_3   0.979085 0.584227 0.603727 0.214282
C9    C     C_1   0.250213 0.498263 0.490930 -0.022988
C10   C     C_1   0.749696 0.501847 0.511547 -0.028529
C11   C     C_3   0.036619 0.474930 0.641721 0.236594
C12   C     C_R   0.498533 0.737800 0.499673 0.542868
C13   C     C_3   0.964354 0.513934 0.387179 0.206572
C14   C     C_3   0.083742 0.495283 0.503378 -0.035163
C15   C     C_3   0.916612 0.494623 0.525109 -0.044068
C16   C     C_1   0.174795 0.496901 0.491308 -0.005313
C17   C     C_1   0.825065 0.500325 0.520593 -0.016665
C18   C     C_R   0.472490 0.065142 0.381864 -0.155576
C19   C     C_R   0.531798 0.934986 0.616841 -0.155753
C20   C     C_3   0.981680 0.241305 0.278875 -0.010828
C21   C     C_3   0.004505 0.188540 0.137092 -0.388656
C22   C     C_3   0.020451 0.737314 0.763336 -0.019374
C23   C     C_R   0.468026 0.937686 0.379626 -0.033139
C24   C     C_3   0.991840 0.854419 0.832742 -0.394266
C25   C     C_3   0.869285 0.237645 0.602914 -0.010931
C26   C     C_3   0.853983 0.103981 0.642417 -0.374312
C27   C     C_3   0.990232 0.799939 0.393371 0.004840
C28   C     C_3   0.015062 0.898009 0.288780 -0.389948
C29   C     C_3   0.966810 0.544082 0.145801 -0.015808
C30   C     C_3   0.910695 0.527370 0.013684 -0.368034
C31   C     C_3   0.150372 0.484765 0.805750 -0.023526
C32   C     C_3   0.168641 0.495038 0.963680 -0.380780
C33   C     C_1   0.429394 0.878570 0.255966 0.214542
C34   C     C_R   0.535758 0.062619 0.619279 -0.035980
C35   C     C_1   0.574999 0.122253 0.742076 0.203268
C36   C     C_3   0.336429 0.270118 0.068589 -0.047484
C37   C     C_3   0.272760 0.210937 0.164674 -0.349377
C38   C     C_3   0.677902 0.698686 0.925664 -0.044279
C39   C     C_3   0.738495 0.753505 0.821541 -0.346271
C40   C     C_R   0.498326 0.871724 0.498256 -0.010223
C41   C     C_R   0.504570 0.128458 0.501221 -0.011077
C42   C     C_R   0.446681 0.421045 0.072331 0.382381
C43   C     C_R   0.553229 0.578533 0.927949 0.385872
C44   C     C_R   0.448497 0.420778 0.921301 -0.024485
Cu1   Cu    Cu3+1 0.500000 0.500020 0.640660 1.017909
Cu2   Cu    Cu3+1 0.500000 0.499980 0.359340 1.030121
H1    H     H_    0.449348 0.115300 0.290576 0.157722
H2    H     H_    0.071048 0.762475 0.690152 0.160497
H3    H     H_    0.046453 0.678334 0.847986 0.154077
H4    H     H_    0.944636 0.832147 0.912365 0.140786
H5    H     H_    0.046613 0.902820 0.886040 0.108641
H6    H     H_    0.963844 0.915857 0.752012 0.159303
H7    H     H_    0.845992 0.249473 0.491935 0.113011
H8    H     H_    0.833054 0.295355 0.674894 0.153222
H9    H     H_    0.873781 0.089685 0.754301 0.158143
H10   H     H_    0.785826 0.079873 0.628449 0.108537
H11   H     H_    0.890053 0.043124 0.573890 0.139671
H12   H     H_    0.556320 0.884713 0.707201 0.165404
H13   H     H_    0.978452 0.845626 0.495057 0.161849
H14   H     H_    0.930296 0.755531 0.352427 0.170467
H15   H     H_    0.033061 0.855018 0.188544 0.150054
H16   H     H_    0.960471 0.957637 0.266745 0.083136
H17   H     H_    0.068983 0.954646 0.332764 0.172608
H18   H     H_    0.016141 0.473527 0.144947 0.176850
H19   H     H_    0.997444 0.636831 0.144393 0.154570
H20   H     H_    0.865376 0.603370 0.005192 0.149874
H21   H     H_    0.949048 0.527652 0.919547 0.193833
H22   H     H_    0.875400 0.438103 0.017277 0.163989
H23   H     H_    0.409490 0.358149 0.857467 0.106594
H24   H     H_    0.164632 0.576402 0.759301 0.118508
H25   H     H_    0.192624 0.414837 0.763056 0.155841
H26   H     H_    0.154409 0.405890 0.015225 0.165750
H27   H     H_    0.236003 0.520850 0.984677 0.128040
H28   H     H_    0.129872 0.567340 0.009613 0.133195
H29   H     H_    0.371034 0.196188 0.015836 0.138200
H30   H     H_    0.299961 0.324364 0.989714 0.107731
H31   H     H_    0.237364 0.283251 0.218440 0.186494
H32   H     H_    0.227438 0.151833 0.101592 0.105261
H33   H     H_    0.305050 0.153419 0.245272 0.155058
H34   H     H_    0.591099 0.641938 0.141155 0.111280
H35   H     H_    0.709503 0.620362 0.979501 0.124172
H36   H     H_    0.664085 0.771737 0.003053 0.127743
H37   H     H_    0.708528 0.830170 0.762939 0.148374
H38   H     H_    0.795962 0.789750 0.878893 0.106254
H39   H     H_    0.756799 0.681918 0.745784 0.186906
H40   H     H_    0.922366 0.292883 0.262167 0.155110
H41   H     H_    0.969787 0.164583 0.352668 0.163821
H42   H     H_    0.062572 0.133998 0.148988 0.155210
H43   H     H_    0.952175 0.128279 0.094237 0.100556
H44   H     H_    0.015555 0.263885 0.061098 0.178166
N1    N     N_R   0.500020 0.500030 0.852070 -0.231010
N2    N     N_R   0.499980 0.499970 0.147930 -0.232243
N3    N     N_1   0.398444 0.831507 0.156902 -0.296453
N4    N     N_1   0.606483 0.169798 0.840402 -0.308395
O1    O     O_R   0.500000 0.319660 0.618740 -0.505149
O2    O     O_3   0.950887 0.677313 0.693590 -0.578967
O3    O     O_3   0.955933 0.267219 0.619127 -0.527194
O4    O     O_3   0.056548 0.716349 0.410878 -0.565146
O5    O     O_3   0.915570 0.532775 0.262363 -0.579494
O6    O     O_3   0.065741 0.446459 0.780265 -0.554750
O7    O     O_3   0.393263 0.345730 0.149802 -0.520924
O8    O     O_3   0.602915 0.659964 0.852265 -0.525108
O9    O     O_R   0.500000 0.680340 0.381260 -0.506647
O10   O     O_R   0.499990 0.319630 0.381170 -0.462679
O11   O     O_R   0.500010 0.680370 0.618830 -0.456693
O12   O     O_R   0.379080 0.500000 0.618760 -0.525844
O13   O     O_R   0.620920 0.500000 0.381240 -0.510745
O14   O     O_R   0.379080 0.499970 0.381190 -0.441289
O15   O     O_R   0.620920 0.500030 0.618810 -0.458945
O16   O     O_3   0.049802 0.314933 0.332948 -0.563733

loop_
_geom_bond_atom_site_label_1
_geom_bond_atom_site_label_2
_ccdc_geom_bond_type
C24   H6    S    
C22   H2    S    
C4    O15   A    
C27   O4    S    
C12   C40   S    
C8    O2    S    
C18   H1    S    
C32   H26   S    
C21   H43   S    
Cu1   Cu2   S    
C37   H33   S    
C6    O4    S    
C22   C24   S    
C36   C37   S    
C9    C16   T    
C25   H7    S    
C39   H38   S    
C5    C11   S    
C27   H14   S    
C32   H28   S    
C38   C39   S    
C11   C14   S    
Cu1   O15   S    
Cu2   N2    S    
C10   C17   T    
C23   C40   A    
C20   H41   S    
C34   C35   S    
C36   H30   S    
C31   H24   S    
C23   C33   S    
Cu2   O14   S    
C14   C16   S    
C30   H21   S    
C28   H15   S    
C24   H5    S    
C31   H25   S    
C21   H42   S    
C3    O12   A    
C26   H9    S    
C34   C41   A    
C42   C44   A    
Cu1   O11   S    
C21   H44   S    
C7    C14   S    
C19   H12   S    
C24   H4    S    
C4    O13   A    
C5    C15   S    
C29   O5    S    
C18   C23   A    
C25   H8    S    
C12   O9    A    
C18   C41   A    
C32   H27   S    
C5    C7    S    
C6    C8    S    
C25   C26   S    
Cu2   O10   S    
C43   N1    A    
C20   H40   S    
C11   O6    S    
C13   O5    S    
C29   C30   S    
C3    C9    S    
C36   H29   S    
C6    C14   S    
C33   N3    T    
C31   C32   S    
C2    C43   A    
C1    O1    A    
Cu2   O13   S    
C44   H23   S    
C31   O6    S    
C2    N2    A    
C1    O10   A    
C30   H20   S    
C44   N1    A    
C22   H3    S    
C29   H19   S    
C25   O3    S    
C5    O3    S    
C8    C15   S    
C13   C15   S    
C38   H35   S    
C20   O16   S    
C39   H39   S    
C4    C10   S    
Cu1   O1    S    
C42   O7    S    
Cu1   O12   S    
Cu2   O9    S    
C35   N4    T    
C1    C41   S    
C15   C17   S    
C22   O2    S    
C19   C34   A    
C26   H10   S    
C3    O14   A    
C37   H32   S    
C7    O16   S    
C43   O8    S    
C39   H37   S    
C38   O8    S    
C27   H13   S    
C6    C13   S    
C12   O11   A    
C37   H31   S    
C8    C11   S    
C42   N2    A    
Cu1   N1    S    
C26   H11   S    
C30   H22   S    
C29   H18   S    
C2    H34   S    
C19   C40   A    
C28   H17   S    
C7    C13   S    
C20   C21   S    
C27   C28   S    
C36   O7    S    
C38   H36   S    
C28   H16   S    
