data_str_m2_o4_o9_f0_pcu.sym.82
_audit_creation_date              2012-12-10T19:10:06-0500
_audit_creation_method            fapswitch 2.2
_symmetry_space_group_name_H-M    P1
_symmetry_Int_Tables_number       1
_space_group_crystal_system       triclinic
_cell_length_a                    10.843387
_cell_length_b                    10.873634
_cell_length_c                    9.525206
_cell_angle_alpha                 89.15898
_cell_angle_beta                  90.769417
_cell_angle_gamma                 89.791155
_cell_volume                      1122.85813639

loop_
_atom_site_label
_atom_site_type_symbol
_atom_type_description
_atom_site_fract_x
_atom_site_fract_y
_atom_site_fract_z
_atom_type_partial_charge
C1    C     C_R   0.499334 0.262581 0.500819 0.903025
C2    C     C_R   0.205614 0.734426 0.022162 -0.069559
C3    C     C_R   0.931407 0.549470 0.389494 -0.242007
C4    C     C_R   0.871720 0.493034 0.502476 -0.041205
C5    C     C_R   0.941236 0.438093 0.613538 0.073454
C6    C     C_R   0.069147 0.445092 0.609953 -0.210158
C7    C     C_R   0.128469 0.501314 0.496658 -0.084539
C8    C     C_R   0.058951 0.552831 0.384116 -0.002480
C9    C     C_R   0.913346 0.401090 0.870491 -0.343482
C10   C     C_R   0.867902 0.332014 0.983036 -0.162284
C11   C     C_R   0.797264 0.227303 0.957887 0.280686
C12   C     C_R   0.262276 0.502181 0.498791 0.802631
C13   C     C_R   0.772020 0.191709 0.820047 -0.250322
C14   C     C_R   0.815935 0.261487 0.706859 0.616431
C15   C     C_R   0.886117 0.367780 0.731464 0.015395
C16   C     C_R   0.517269 0.061186 0.624318 0.027437
C17   C     C_R   0.504903 0.129905 0.500422 -0.060659
C18   C     C_R   0.503660 0.069039 0.372052 -0.156548
C19   C     C_R   0.503030 0.941526 0.367343 0.268197
C20   C     C_R   0.505029 0.871691 0.494716 -0.128883
C21   C     C_R   0.517877 0.934378 0.621398 -0.024399
C22   C     C_3   0.443449 0.924047 0.752058 -0.452948
C23   C     C_R   0.499255 0.737969 0.498420 0.825550
C24   C     C_3   0.442426 0.063549 0.754837 0.443695
C25   C     C_R   0.553423 0.593959 0.072639 0.354657
C26   C     C_R   0.438409 0.412619 0.074989 -0.047246
C27   C     C_R   0.438956 0.412220 0.925995 -0.093818
C28   C     C_R   0.550562 0.595873 0.925183 0.255694
C29   C     C_3   0.680426 0.638874 0.917430 -0.496074
C30   C     C_3   0.686019 0.630362 0.076389 -0.488021
C31   C     C_R   0.737742 0.496167 0.501129 0.853643
C32   C     C_R   0.181466 0.801256 0.143115 -0.049584
C33   C     C_R   0.136754 0.741490 0.262893 -0.145484
C34   C     C_R   0.114597 0.614530 0.261412 0.123974
C35   C     C_R   0.137582 0.548010 0.139210 -0.121957
C36   C     C_R   0.183720 0.607914 0.020208 -0.173412
Cu1   Cu    Cu3+1 0.499990 0.499980 0.640670 0.962372
Cu2   Cu    Cu3+1 0.500010 0.500020 0.359330 0.999266
H1    H     H_    0.240786 0.780731 0.929859 0.139746
H2    H     H_    0.720417 0.108650 0.800849 0.160014
H3    H     H_    0.497129 0.120456 0.273962 0.205793
H4    H     H_    0.351118 0.882991 0.732666 0.214130
H5    H     H_    0.497002 0.881737 0.840658 0.190701
H6    H     H_    0.492045 0.103180 0.846346 0.104248
H7    H     H_    0.389844 0.341022 0.131286 0.147837
H8    H     H_    0.197496 0.899431 0.144073 0.166540
H9    H     H_    0.391160 0.340177 0.870554 0.182331
H10   H     H_    0.741725 0.572666 0.865562 0.232139
H11   H     H_    0.686397 0.734797 0.876184 0.212369
H12   H     H_    0.746828 0.554470 0.115126 0.203690
H13   H     H_    0.701993 0.720399 0.126801 0.244948
H14   H     H_    0.117868 0.794128 0.355896 0.138825
H15   H     H_    0.119493 0.450181 0.136202 0.132239
H16   H     H_    0.201602 0.556490 0.926146 0.141078
H17   H     H_    0.878498 0.593631 0.305634 0.153090
H18   H     H_    0.123059 0.402250 0.694246 0.173600
H19   H     H_    0.968652 0.481583 0.891497 0.175093
H20   H     H_    0.888571 0.359306 0.089621 0.177501
N1    N     N_R   0.500790 0.500930 0.147930 -0.191524
N2    N     N_R   0.500790 0.500890 0.852020 -0.200826
O1    O     O_R   0.500000 0.319640 0.618810 -0.575614
O2    O     O_R   0.500010 0.319680 0.381230 -0.591340
O3    O     O_R   0.319640 0.499990 0.618790 -0.593630
O4    O     O_R   0.319650 0.500030 0.381210 -0.576942
O5    O     O_R   0.499990 0.680320 0.618770 -0.589037
O6    O     O_R   0.500000 0.680360 0.381190 -0.542949
O7    O     O_R   0.680350 0.499970 0.618790 -0.599907
O8    O     O_R   0.680360 0.500010 0.381210 -0.577122
Br1   Br    Br    0.738789 0.130897 0.111816 -0.498020
F1    F     F_    0.794068 0.222980 0.573962 -0.673427
Br2   Br    Br    0.487722 0.876889 0.181580 -0.586808
F2    F     F_    0.325673 0.112269 0.730896 -0.659799

loop_
_geom_bond_atom_site_label_1
_geom_bond_atom_site_label_2
_ccdc_geom_bond_type
C22   H4    S    
Cu1   O1    S    
C30   H13   S    
C11   Br1   S    
C16   C21   A    
C35   H15   S    
C11   C13   A    
C9    C10   A    
C19   Br2   S    
C19   C20   A    
C20   C23   S    
C32   C33   A    
C23   O5    A    
C17   C18   A    
C30   H12   S    
C7    C8    A    
C16   C24   S    
C8    C34   S    
C21   C22   S    
C1    O2    A    
C25   C28   A    
C31   O7    A    
C14   F1    S    
C26   C27   A    
C29   C30   S    
C32   H8    S    
C12   O4    A    
C5    C6    A    
Cu1   O7    S    
C23   O6    A    
Cu1   O5    S    
C28   C29   S    
Cu1   O3    S    
Cu1   Cu2   S    
Cu2   O8    S    
C33   C34   A    
C6    C7    A    
Cu2   O4    S    
C27   N2    A    
C28   N2    A    
C3    C8    A    
C9    C15   A    
C31   O8    A    
C24   H6    S    
C22   C24   S    
C7    C12   S    
C5    C15   S    
C4    C31   S    
C36   H16   S    
C10   C11   A    
C29   H10   S    
C2    C36   A    
C3    C4    A    
Cu1   N2    S    
C16   C17   A    
C1    C17   S    
C24   F2    S    
C9    H19   S    
C2    C32   A    
C34   C35   A    
C26   N1    A    
C18   H3    S    
C27   H9    S    
C25   C30   S    
C12   O3    A    
C14   C15   A    
C18   C19   A    
C13   H2    S    
C29   H11   S    
C25   N1    A    
C26   H7    S    
C10   H20   S    
C20   C21   A    
C13   C14   A    
C33   H14   S    
C3    H17   S    
C2    H1    S    
C22   H5    S    
Cu2   O6    S    
Cu2   N1    S    
C6    H18   S    
C4    C5    A    
Cu2   O2    S    
C35   C36   A    
C1    O1    A    
