data_str_m2_o1_o23_f0_pcu.sym.231
_audit_creation_date              2012-12-10T17:59:48-0500
_audit_creation_method            fapswitch 2.2
_symmetry_space_group_name_H-M    P1
_symmetry_Int_Tables_number       1
_space_group_crystal_system       triclinic
_cell_length_a                    10.811855
_cell_length_b                    9.56719
_cell_length_c                    15.911358
_cell_angle_alpha                 90.069714
_cell_angle_beta                  91.208491
_cell_angle_gamma                 90.096495
_cell_volume                      1645.48637653

loop_
_atom_site_label
_atom_site_type_symbol
_atom_type_description
_atom_site_fract_x
_atom_site_fract_y
_atom_site_fract_z
_atom_type_partial_charge
C1    C     C_R   0.262067 0.499927 0.500766 0.824530
C2    C     C_3   0.628755 0.529863 0.954049 -0.072962
C3    C     C_3   0.619085 0.533131 0.052317 -0.317919
C4    C     C_1   0.497696 0.496943 0.823750 0.053942
C5    C     C_1   0.492405 0.496930 0.175845 -0.006280
C6    C     C_1   0.496366 0.499414 0.251178 -0.130240
C7    C     C_R   0.064707 0.373651 0.513681 -0.172734
C8    C     C_R   0.067103 0.625560 0.522922 -0.156794
C9    C     C_R   0.939072 0.371724 0.531321 0.141868
C10   C     C_R   0.940022 0.627865 0.534905 0.141561
C11   C     C_R   0.872594 0.500110 0.527379 -0.108932
C12   C     C_R   0.128441 0.499981 0.508738 -0.100072
C13   C     C_R   0.434579 0.073842 0.439413 0.074891
C14   C     C_R   0.432997 0.924939 0.440512 0.088677
C15   C     C_R   0.499593 0.499933 0.340456 0.834362
C16   C     C_R   0.562844 0.926198 0.560760 -0.053844
C17   C     C_R   0.562529 0.074334 0.560996 -0.043168
C18   C     C_R   0.737439 0.500150 0.510830 0.783702
C19   C     C_R   0.500656 0.500031 0.659462 0.812065
C20   C     C_3   0.390896 0.611231 0.049067 0.041850
C21   C     C_3   0.460362 0.333415 0.051216 -0.019751
C22   C     C_3   0.451093 0.336534 0.947861 -0.014129
C23   C     C_3   0.394760 0.616654 0.945544 0.081336
C24   C     C_1   0.499819 0.499519 0.748482 -0.171065
C25   C     C_3   0.486560 0.492151 0.082817 0.043467
C26   C     C_3   0.492648 0.494685 0.915919 0.019003
Cu1   Cu    Cu3+1 0.500020 0.640660 0.500000 0.958800
Cu2   Cu    Cu3+1 0.500020 0.359340 0.500000 0.953166
H1    H     H_    0.611768 0.871099 0.610232 0.139070
H2    H     H_    0.611816 0.129576 0.610618 0.122459
H3    H     H_    0.647822 0.634429 0.079294 0.246221
H4    H     H_    0.690638 0.467608 0.082986 0.239673
H5    H     H_    0.114424 0.276085 0.508394 0.166177
H6    H     H_    0.119210 0.722189 0.527379 0.189048
N1    N     N_R   0.500030 0.852070 0.500020 -0.196181
N2    N     N_R   0.500030 0.147930 0.500020 -0.197920
O1    O     O_R   0.319660 0.618740 0.500000 -0.552411
O2    O     O_R   0.319660 0.381260 0.500000 -0.620684
O3    O     O_R   0.500020 0.618840 0.379440 -0.607274
O4    O     O_R   0.500020 0.381160 0.379440 -0.555929
O5    O     O_R   0.680370 0.618830 0.500010 -0.573886
O6    O     O_R   0.680370 0.381170 0.500010 -0.586433
O7    O     O_R   0.500010 0.618730 0.620560 -0.587453
O8    O     O_R   0.500010 0.381270 0.620560 -0.584374
C27   C     C_2   0.264904 0.597684 0.904022 0.300724
H7    H     H_    0.185445 0.650299 0.929060 0.128784
O9    O     O_2   0.248464 0.538878 0.836461 -0.543497
C28   C     C_2   0.316483 0.302784 0.920101 0.520242
H8    H     H_    0.239599 0.353955 0.948311 0.068659
O10   O     O_2   0.289206 0.212384 0.868626 -0.548030
C29   C     C_3   0.255240 0.584518 0.083008 -0.523229
C30   C     C_3   0.169654 0.713431 0.089508 -0.813220
H9    H     H_    0.179172 0.762662 0.152562 0.253195
H10   H     H_    0.190067 0.793510 0.041407 0.240023
H11   H     H_    0.071407 0.680876 0.081426 0.278429
H12   H     H_    0.203294 0.510047 0.043578 0.202179
H13   H     H_    0.259565 0.537584 0.146752 0.222855
C31   C     C_3   0.344052 0.266348 0.096484 -0.430829
C32   C     C_3   0.324279 0.108011 0.084967 -0.778810
H14   H     H_    0.326036 0.076290 0.018202 0.244390
H15   H     H_    0.394832 0.048475 0.121463 0.288833
H16   H     H_    0.232723 0.078031 0.109811 0.258096
H17   H     H_    0.352480 0.283341 0.165319 0.263910
H18   H     H_    0.255427 0.313305 0.079399 0.188226
C33   C     C_2   0.565811 0.236075 0.084724 0.473419
H19   H     H_    0.578388 0.132721 0.058613 0.111736
O11   O     O_2   0.626456 0.261243 0.148604 -0.518848
C34   C     C_2   0.430366 0.749178 0.095101 0.342274
H20   H     H_    0.388169 0.775955 0.154233 0.115603
O12   O     O_2   0.516811 0.822883 0.074976 -0.583278
C35   C     C_3   0.530560 0.210455 0.908850 -0.347430
C36   C     C_3   0.543482 0.194508 0.812963 -0.749106
H21   H     H_    0.457261 0.216193 0.776758 0.299707
H22   H     H_    0.618679 0.261026 0.789142 0.211958
H23   H     H_    0.571482 0.085619 0.798557 0.216885
H24   H     H_    0.625468 0.203812 0.934419 0.210582
H25   H     H_    0.488510 0.110618 0.929721 0.207332
C37   C     C_3   0.422533 0.771931 0.913511 -0.363964
C38   C     C_3   0.416480 0.804614 0.818494 -0.803317
H26   H     H_    0.335531 0.758448 0.785098 0.295145
H27   H     H_    0.408361 0.919356 0.810164 0.250549
H28   H     H_    0.502504 0.772998 0.787270 0.231101
H29   H     H_    0.353079 0.842179 0.942170 0.196693
H30   H     H_    0.510789 0.815897 0.934836 0.268562
C39   C     C_2   0.683551 0.665140 0.920422 0.356421
H31   H     H_    0.679242 0.686050 0.853447 0.047704
O13   O     O_2   0.740064 0.747835 0.965583 -0.506854
C40   C     C_2   0.727546 0.427894 0.925255 0.342685
H32   H     H_    0.741144 0.413250 0.858496 0.059977
O14   O     O_2   0.797897 0.367653 0.974167 -0.529690
C41   C     C_3   0.882030 0.235079 0.561111 -0.388824
C42   C     C_3   0.965006 0.154934 0.623653 -0.836026
H33   H     H_    0.042172 0.102695 0.591210 0.248961
H34   H     H_    0.002732 0.226494 0.672960 0.283889
H35   H     H_    0.909950 0.072721 0.654816 0.240850
H36   H     H_    0.797194 0.256816 0.596574 0.213069
H37   H     H_    0.858770 0.167245 0.506278 0.221694
C43   C     C_3   0.885302 0.764398 0.565971 -0.370231
C44   C     C_3   0.839416 0.748362 0.655765 -0.833974
H38   H     H_    0.761377 0.673123 0.658198 0.239464
H39   H     H_    0.915668 0.710822 0.697811 0.268513
H40   H     H_    0.807542 0.850765 0.679771 0.225338
H41   H     H_    0.956489 0.848343 0.567528 0.196915
H42   H     H_    0.812147 0.805231 0.523060 0.230228
C45   C     C_2   0.363487 0.146888 0.372206 0.407343
H43   H     H_    0.298322 0.228157 0.386562 0.094260
O15   O     O_2   0.377072 0.115154 0.298647 -0.584218
C46   C     C_2   0.351533 0.850196 0.379969 0.470641
H44   H     H_    0.386847 0.816707 0.319948 0.073834
O16   O     O_2   0.241871 0.835367 0.394249 -0.583932

loop_
_geom_bond_atom_site_label_1
_geom_bond_atom_site_label_2
_ccdc_geom_bond_type
C22   C28   S    
C11   C18   S    
C23   C27   S    
C9    C41   S    
C39   H31   S    
C30   H9    S    
C45   O15   D    
C20   C29   S    
C18   O6    A    
C16   N1    A    
C35   H24   S    
C4    C24   T    
C20   C25   S    
Cu2   O4    S    
C43   H41   S    
C46   H44   S    
C2    C39   S    
C29   H12   S    
C23   C26   S    
C10   C43   S    
C6    C15   S    
C37   H29   S    
Cu1   O3    S    
C34   H20   S    
C33   O11   D    
C2    C40   S    
C29   H13   S    
C17   N2    A    
C41   C42   S    
C30   H11   S    
C1    O1    A    
C30   H10   S    
C28   O10   D    
C41   H36   S    
C32   H14   S    
C21   C22   S    
C17   H2    S    
C7    H5    S    
C1    C12   S    
C36   H23   S    
C19   O7    A    
C27   O9    D    
C31   H18   S    
C7    C12   A    
C14   C46   S    
C32   H15   S    
C39   O13   D    
C29   C30   S    
C3    C25   S    
C13   N2    A    
C36   H22   S    
C18   O5    A    
C14   N1    A    
C38   H27   S    
C37   C38   S    
C16   C17   A    
Cu1   N1    S    
C16   H1    S    
C27   H7    S    
Cu2   O8    S    
C42   H35   S    
C37   H30   S    
Cu1   O5    S    
C44   H38   S    
C20   C23   S    
Cu2   O2    S    
C8    C12   A    
C42   H34   S    
C2    C26   S    
C8    H6    S    
C41   H37   S    
C3    H3    S    
C9    C11   A    
C15   O3    A    
C1    O2    A    
C5    C25   S    
C13   C45   S    
C28   H8    S    
C44   H39   S    
C40   O14   D    
C43   C44   S    
C22   C35   S    
C35   H25   S    
C19   O8    A    
C31   H17   S    
C7    C9    A    
C21   C25   S    
C32   H16   S    
C21   C33   S    
C20   C34   S    
C8    C10   A    
C36   H21   S    
C38   H28   S    
C4    C26   S    
C45   H43   S    
C2    C3    S    
C31   C32   S    
C21   C31   S    
C5    C6    T    
Cu1   O1    S    
C43   H42   S    
Cu2   O6    S    
C42   H33   S    
C46   O16   D    
C19   C24   S    
C23   C37   S    
C3    H4    S    
C15   O4    A    
C10   C11   A    
C38   H26   S    
Cu1   O7    S    
C35   C36   S    
C44   H40   S    
C40   H32   S    
Cu2   N2    S    
C34   O12   D    
C33   H19   S    
C22   C26   S    
Cu1   Cu2   S    
C13   C14   A    
