data_str_m2_o5_o13_f0_pcu.sym.77
_audit_creation_date              2012-10-26T21:05:43-0400
_audit_creation_method            fapswitch 2.2
_symmetry_space_group_name_H-M    P1
_symmetry_Int_Tables_number       1
_space_group_crystal_system       triclinic
_cell_length_a                    13.064214
_cell_length_b                    9.093385
_cell_length_c                    7.79359
_cell_angle_alpha                 90.007222
_cell_angle_beta                  95.478775
_cell_angle_gamma                 89.958009
_cell_volume                      921.632415368

loop_
_atom_site_label
_atom_site_type_symbol
_atom_type_description
_atom_site_fract_x
_atom_site_fract_y
_atom_site_fract_z
_atom_type_partial_charge
C1    C     C_R   0.499920 0.220068 0.499986 0.582227
C2    C     C_R   0.866071 0.503630 0.705438 -0.149111
C3    C     C_R   0.134102 0.445015 0.603135 0.256508
C4    C     C_R   0.865802 0.435904 0.402474 0.250710
C5    C     C_R   0.026702 0.460536 0.584782 0.008090
C6    C     C_R   0.973133 0.452674 0.418779 0.003601
C7    C     C_1   0.499944 0.065403 0.499988 -0.002022
C8    C     C_1   0.499972 0.934639 0.500005 -0.015813
C9    C     C_R   0.499996 0.779937 0.500006 0.545174
C10   C     C_R   0.300399 0.490059 0.470116 0.570042
C11   C     C_R   0.699543 0.490643 0.530209 0.574582
C12   C     C_R   0.811624 0.474834 0.545374 -0.000387
C13   C     C_R   0.188256 0.472016 0.456580 -0.005635
C14   C     C_R   0.027867 0.467696 0.273972 -0.072979
C15   C     C_R   0.971973 0.489562 0.726875 -0.074502
C16   C     C_R   0.133568 0.485207 0.293949 -0.150202
Cu1   Cu    Cu3+1 0.500010 0.500000 0.669080 1.130913
Cu2   Cu    Cu3+1 0.499990 0.500000 0.330920 1.127005
H1    H     H_    0.826713 0.536322 0.815156 0.198315
H2    H     H_    0.172674 0.507379 0.181169 0.213917
H3    H     H_    0.988759 0.477305 0.145975 0.184755
H4    H     H_    0.011175 0.512777 0.852308 0.174104
H5    H     H_    0.676152 0.194611 0.169142 0.369071
H6    H     H_    0.323982 0.221722 0.861784 0.368293
N1    N     N_1   0.499980 0.500000 0.076820 -0.042686
N2    N     N_1   0.500020 0.500000 0.923180 -0.042093
O1    O     O_R   0.500000 0.288400 0.642760 -0.494260
O2    O     O_2   0.880199 0.253583 0.128763 -0.254945
O3    O     O_3   0.713251 0.229685 0.278261 -0.505778
O4    O     O_2   0.246765 0.489855 0.904708 -0.313816
O5    O     O_2   0.119771 0.290887 0.899951 -0.270012
O6    O     O_3   0.284492 0.244743 0.750130 -0.499028
O7    O     O_R   0.500000 0.711600 0.357240 -0.503890
O8    O     O_R   0.500000 0.288400 0.357240 -0.496347
O9    O     O_R   0.500000 0.711600 0.642760 -0.503323
O10   O     O_R   0.349000 0.500000 0.619590 -0.432224
O11   O     O_R   0.651000 0.500000 0.380410 -0.437324
O12   O     O_R   0.348990 0.500000 0.334020 -0.508656
O13   O     O_R   0.651010 0.500000 0.665980 -0.507689
O14   O     O_2   0.755942 0.455979 0.093665 -0.309168
S1    S     S_3+6 0.804422 0.343797 0.217554 0.020503
S2    S     S_3+6 0.195569 0.368315 0.797848 0.014078

loop_
_geom_bond_atom_site_label_1
_geom_bond_atom_site_label_2
_ccdc_geom_bond_type
C9    O7    A    
C11   C12   S    
H6    O6    S    
C3    S2    S    
Cu1   O10   S    
C4    C12   A    
C3    C13   A    
C16   H2    S    
C10   O12   A    
C2    C12   A    
Cu1   Cu2   S    
Cu2   O12   S    
C7    C8    T    
C11   O13   A    
C2    C15   A    
Cu2   O8    S    
Cu2   N1    S    
Cu1   N2    S    
H5    O3    S    
C14   H3    S    
C4    C6    A    
O14   S1    D    
O5    S2    D    
Cu2   O11   S    
C1    O8    A    
C5    C6    A    
Cu2   O7    S    
C14   C16   A    
C5    C15   A    
C6    C14   A    
C4    S1    S    
C9    O9    A    
Cu1   O1    S    
O2    S1    D    
C11   O11   A    
Cu1   O13   S    
C13   C16   A    
C2    H1    S    
C1    O1    A    
O6    S2    S    
O4    S2    D    
C10   O10   A    
Cu1   O9    S    
O3    S1    S    
N1    N2    T    
C1    C7    S    
C15   H4    S    
C8    C9    S    
C3    C5    A    
C10   C13   S    
