data_str_m2_o5_o8_f0_pcu.sym.95
_audit_creation_date              2012-12-10T19:12:21-0500
_audit_creation_method            fapswitch 2.2
_symmetry_space_group_name_H-M    P1
_symmetry_Int_Tables_number       1
_space_group_crystal_system       triclinic
_cell_length_a                    7.768871
_cell_length_b                    9.091075
_cell_length_c                    17.164724
_cell_angle_alpha                 89.652363
_cell_angle_beta                  92.731357
_cell_angle_gamma                 89.996295
_cell_volume                      1210.90003346

loop_
_atom_site_label
_atom_site_type_symbol
_atom_type_description
_atom_site_fract_x
_atom_site_fract_y
_atom_site_fract_z
_atom_type_partial_charge
C1    C     C_R   0.499986 0.219966 0.500059 0.858598
C2    C     C_R   0.500008 0.780033 0.499906 0.867831
C3    C     C_R   0.519063 0.503334 0.651156 0.893063
C4    C     C_R   0.480852 0.496685 0.348890 0.883052
C5    C     C_R   0.527054 0.505207 0.736784 -0.231660
C6    C     C_R   0.472520 0.494857 0.263344 -0.235511
C7    C     C_R   0.395654 0.568268 0.780391 0.392805
C8    C     C_R   0.601240 0.428042 0.219721 0.397294
C9    C     C_R   0.408842 0.558437 0.861508 -0.228460
C10   C     C_R   0.588383 0.438253 0.138596 -0.219603
C11   C     C_R   0.550915 0.489535 0.900719 0.196452
C12   C     C_R   0.448930 0.511159 0.099496 0.196768
C13   C     C_R   0.683120 0.430885 0.857058 0.418810
C14   C     C_R   0.318928 0.573259 0.143259 0.423241
C15   C     C_R   0.670232 0.439697 0.775888 -0.282869
C16   C     C_R   0.331732 0.564097 0.224394 -0.303487
C17   C     C_1   0.499990 0.065361 0.500013 -0.111559
C18   C     C_1   0.499988 0.934635 0.499962 -0.118353
Cu1   Cu    Cu3+1 0.669080 0.500010 0.500000 1.100595
Cu2   Cu    Cu3+1 0.330920 0.499990 0.500000 1.073362
H1    H     H_    0.687338 0.387312 0.105744 0.259575
H2    H     H_    0.307946 0.606596 0.894259 0.262576
H3    H     H_    0.772010 0.393092 0.742775 0.243049
H4    H     H_    0.231880 0.613503 0.257616 0.241343
N1    N     N_1   0.076820 0.499970 0.500010 -0.019311
N2    N     N_1   0.923180 0.500030 0.499990 -0.008004
N3    N     N_2   0.565360 0.479922 0.983407 -0.139431
N4    N     N_2   0.434665 0.520978 0.016840 -0.141557
O1    O     O_R   0.642760 0.288400 0.500000 -0.561298
O2    O     O_R   0.357240 0.711600 0.500000 -0.572703
O3    O     O_R   0.357190 0.288380 0.500000 -0.591289
O4    O     O_R   0.642810 0.711620 0.500000 -0.581285
O5    O     O_R   0.658410 0.498660 0.613920 -0.582477
O6    O     O_R   0.341590 0.501340 0.386080 -0.607884
O7    O     O_R   0.372840 0.498650 0.613930 -0.526593
O8    O     O_R   0.627160 0.501350 0.386070 -0.518229
S1    S     S_3+6 0.776042 0.325494 0.262837 0.054876
O9    O     O_2   0.712392 0.225240 0.325198 -0.297075
O10   O     O_2   0.860152 0.234401 0.202465 -0.233415
O11   O     O_3   0.922606 0.442623 0.302457 -0.503103
H5    H     H_    0.016454 0.379101 0.324664 0.373476
S2    S     S_3+6 0.217097 0.666310 0.737409 0.054853
O12   O     O_2   0.089859 0.558669 0.701701 -0.271883
O13   O     O_2   0.129677 0.754912 0.797784 -0.225251
O14   O     O_3   0.284760 0.781021 0.668003 -0.538657
H6    H     H_    0.177964 0.820578 0.641885 0.376879
S3    S     S_3+6 0.868905 0.348146 0.901872 0.087497
O15   O     O_2   0.997182 0.466960 0.922403 -0.215011
O16   O     O_2   0.824785 0.266335 0.974606 -0.225647
O17   O     O_3   0.956630 0.230453 0.839727 -0.507022
H7    H     H_    0.069479 0.202968 0.864985 0.394469
S4    S     S_3+6 0.136049 0.661457 0.098959 0.089636
O18   O     O_2   0.179631 0.735262 0.023836 -0.223557
O19   O     O_2   0.998773 0.547786 0.082952 -0.216470
O20   O     O_3   0.061163 0.788169 0.159841 -0.500691
H8    H     H_    0.950529 0.821819 0.134713 0.399250

loop_
_geom_bond_atom_site_label_1
_geom_bond_atom_site_label_2
_ccdc_geom_bond_type
O20   H8    S    
C4    O8    A    
S1    O9    D    
C3    O7    A    
S1    O11   S    
C11   C13   A    
C16   H4    S    
C1    C17   S    
Cu1   Cu2   S    
S4    O20   S    
C11   N3    S    
C2    O2    A    
Cu2   O6    S    
C15   H3    S    
C17   C18   T    
C5    C7    A    
S3    O16   D    
Cu2   O2    S    
O14   H6    S    
C9    C11   A    
S2    O13   D    
C12   N4    S    
Cu1   O4    S    
C10   C12   A    
C2    O4    A    
C1    O1    A    
O11   H5    S    
C12   C14   A    
O17   H7    S    
S3    O17   S    
C14   C16   A    
Cu1   O8    S    
C13   C15   A    
C10   H1    S    
Cu1   O5    S    
Cu2   O3    S    
C4    O6    A    
C9    H2    S    
C5    C15   A    
C4    C6    S    
C2    C18   S    
S2    O12   D    
C3    O5    A    
C6    C16   A    
Cu1   O1    S    
C1    O3    A    
S4    O18   D    
S1    O10   D    
C8    S1    S    
C7    S2    S    
N3    N4    D    
C7    C9    A    
Cu1   N2    S    
C6    C8    A    
N1    N2    T    
Cu2   O7    S    
C13   S3    S    
S2    O14   S    
C8    C10   A    
C14   S4    S    
S3    O15   D    
S4    O19   D    
C3    C5    S    
Cu2   N1    S    
