data_str_m2_o1_o10_f0_pcu.sym.38
_audit_creation_date              2012-10-26T20:20:45-0400
_audit_creation_method            fapswitch 2.2
_symmetry_space_group_name_H-M    P1
_symmetry_Int_Tables_number       1
_space_group_crystal_system       triclinic
_cell_length_a                    8.714987
_cell_length_b                    10.769875
_cell_length_c                    9.625943
_cell_angle_alpha                 88.467947
_cell_angle_beta                  97.425045
_cell_angle_gamma                 92.71718
_cell_volume                      894.707530833

loop_
_atom_site_label
_atom_site_type_symbol
_atom_type_description
_atom_site_fract_x
_atom_site_fract_y
_atom_site_fract_z
_atom_type_partial_charge
C1    C     C_R   0.499636 0.262465 0.501114 0.548808
C2    C     C_R   0.583834 0.064436 0.611796 -0.079739
C3    C     C_R   0.501471 0.871551 0.497996 0.019814
C4    C     C_R   0.498529 0.128449 0.502004 0.019818
C5    C     C_R   0.418768 0.411175 0.070461 0.011704
C6    C     C_R   0.581232 0.588825 0.929539 0.011704
C7    C     C_R   0.416697 0.409008 0.923024 0.348621
C8    C     C_R   0.583303 0.590992 0.076976 0.348621
C9    C     C_R   0.500363 0.737535 0.498886 0.548804
C10   C     C_R   0.204273 0.500197 0.464170 0.554292
C11   C     C_R   0.795727 0.499802 0.535830 0.554289
C12   C     C_2   0.038455 0.499658 0.444538 -0.118804
C13   C     C_2   0.961545 0.500342 0.555462 -0.118806
C14   C     C_R   0.415431 0.064103 0.389743 -0.113122
C15   C     C_R   0.584568 0.935897 0.610257 -0.113124
C16   C     C_R   0.416166 0.935564 0.388204 -0.079739
Cu1   Cu    Cu3+1 0.500000 0.500020 0.640660 1.057614
Cu2   Cu    Cu3+1 0.500000 0.499980 0.359340 1.057613
H1    H     H_    0.979403 0.498515 0.337896 0.168157
H2    H     H_    0.815064 0.796141 0.341167 0.354456
H3    H     H_    0.020597 0.501485 0.662104 0.168156
H4    H     H_    0.348699 0.113200 0.304441 0.154268
H5    H     H_    0.651301 0.886800 0.695559 0.154268
H6    H     H_    0.348304 0.886146 0.303037 0.175934
H7    H     H_    0.651695 0.113854 0.696963 0.175932
H8    H     H_    0.356934 0.340026 0.125149 0.174697
H9    H     H_    0.643066 0.659974 0.874851 0.174696
H10   H     H_    0.184919 0.203861 0.658840 0.354458
N1    N     N_R   0.500040 0.500030 0.852080 -0.287608
N2    N     N_R   0.499960 0.499970 0.147920 -0.287608
O1    O     O_R   0.499990 0.319660 0.618740 -0.425496
O2    O     O_2   0.201335 0.224169 0.942894 -0.303348
O3    O     O_3   0.217960 0.289382 0.688697 -0.506954
O4    O     O_2   0.798664 0.775833 0.057106 -0.303342
O5    O     O_2   0.566064 0.824831 0.154502 -0.283989
O6    O     O_3   0.782040 0.710618 0.311302 -0.506951
O7    O     O_R   0.500010 0.680340 0.381260 -0.425500
O8    O     O_R   0.499990 0.319630 0.381170 -0.528992
O9    O     O_R   0.500010 0.680370 0.618830 -0.528991
O10   O     O_R   0.274840 0.500010 0.591370 -0.447228
O11   O     O_R   0.725160 0.499990 0.408630 -0.447229
O12   O     O_R   0.274830 0.499980 0.353800 -0.510617
O13   O     O_R   0.725170 0.500020 0.646200 -0.510618
O14   O     O_2   0.433935 0.175169 0.845498 -0.283985
S1    S     S_3+6 0.316722 0.272462 0.848786 0.037531
S2    S     S_3+6 0.683277 0.727538 0.151214 0.037533

loop_
_geom_bond_atom_site_label_1
_geom_bond_atom_site_label_2
_ccdc_geom_bond_type
C2    C4    A    
Cu1   O13   S    
O6    S2    S    
Cu2   N2    S    
C10   O12   A    
O3    S1    S    
O2    S1    D    
C6    H9    S    
C9    O9    A    
C1    C4    S    
C8    N2    A    
C14   H4    S    
C9    O7    A    
Cu1   Cu2   S    
Cu2   O8    S    
C13   H3    S    
C16   H6    S    
O14   S1    D    
C11   O13   A    
C2    C15   A    
C11   C13   S    
C10   C12   S    
C1    O8    A    
O4    S2    D    
C7    S1    S    
C12   H1    S    
C15   H5    S    
C3    C9    S    
Cu2   O7    S    
H10   O3    S    
C11   O11   A    
C2    H7    S    
C8    S2    S    
Cu2   O12   S    
C4    C14   A    
Cu1   O1    S    
C14   C16   A    
C7    N1    A    
H2    O6    S    
C1    O1    A    
C6    N1    A    
Cu1   N1    S    
C12   C13   D    
C10   O10   A    
C5    N2    A    
Cu1   O9    S    
Cu2   O11   S    
C5    C7    A    
C3    C15   A    
C6    C8    A    
O5    S2    D    
C3    C16   A    
C5    H8    S    
Cu1   O10   S    
