data_str_m2_o4_o23_f0_pcu.sym.108
_audit_creation_date              2012-12-10T19:03:35-0500
_audit_creation_method            fapswitch 2.2
_symmetry_space_group_name_H-M    P1
_symmetry_Int_Tables_number       1
_space_group_crystal_system       triclinic
_cell_length_a                    15.871103
_cell_length_b                    10.863745
_cell_length_c                    9.635759
_cell_angle_alpha                 89.940569
_cell_angle_beta                  90.844855
_cell_angle_gamma                 91.426711
_cell_volume                      1660.69788601

loop_
_atom_site_label
_atom_site_type_symbol
_atom_type_description
_atom_site_fract_x
_atom_site_fract_y
_atom_site_fract_z
_atom_type_partial_charge
C1    C     C_R   0.498940 0.262520 0.499969 0.788216
C2    C     C_3   0.951307 0.406035 0.623233 0.379127
C3    C     C_3   0.916514 0.485766 0.500458 0.057173
C4    C     C_3   0.951578 0.619734 0.515431 -0.473070
C5    C     C_3   0.049220 0.624560 0.502306 -0.020510
C6    C     C_1   0.824209 0.487985 0.501295 0.021945
C7    C     C_1   0.175569 0.492920 0.496710 -0.021440
C8    C     C_1   0.251056 0.496000 0.496840 -0.194567
C9    C     C_R   0.476581 0.061943 0.619256 0.148592
C10   C     C_R   0.492662 0.128883 0.498327 -0.164631
C11   C     C_R   0.500117 0.064568 0.372868 -0.219544
C12   C     C_R   0.340536 0.499092 0.499085 0.822682
C13   C     C_R   0.499393 0.936203 0.371439 -0.220255
C14   C     C_R   0.493916 0.870459 0.496718 -0.088556
C15   C     C_R   0.479330 0.934967 0.618180 0.065309
C16   C     C_3   0.526685 0.931025 0.752063 -0.568521
C17   C     C_3   0.519754 0.069874 0.757786 0.357327
C18   C     C_R   0.532672 0.597341 0.073906 0.144582
C19   C     C_R   0.453596 0.415497 0.073606 -0.201407
C20   C     C_R   0.450070 0.418622 0.923627 0.592184
C21   C     C_R   0.537043 0.593807 0.930311 0.016703
C22   C     C_3   0.620542 0.663786 0.931769 -0.164677
C23   C     C_R   0.499748 0.737382 0.499462 0.788769
C24   C     C_3   0.611738 0.673053 0.090941 0.308099
C25   C     C_R   0.659422 0.497592 0.500679 0.814124
C26   C     C_3   0.050905 0.416625 0.631545 -0.178514
C27   C     C_3   0.047306 0.425118 0.365294 0.295900
C28   C     C_3   0.948830 0.434845 0.358449 -0.142374
C29   C     C_1   0.748803 0.491892 0.501769 -0.168079
C30   C     C_3   0.083089 0.489427 0.499995 0.063763
Cu1   Cu    Cu3+1 0.500000 0.499980 0.640670 0.987177
Cu2   Cu    Cu3+1 0.500000 0.500020 0.359330 0.971804
H1    H     H_    0.936012 0.309562 0.593446 0.105191
H2    H     H_    0.074290 0.470733 0.721859 0.177638
H3    H     H_    0.923783 0.678849 0.432989 0.155864
H4    H     H_    0.511361 0.113405 0.277389 0.155755
H5    H     H_    0.507652 0.889490 0.273647 0.152099
H6    H     H_    0.490942 0.880281 0.833408 0.215734
H7    H     H_    0.592779 0.903344 0.736600 0.152396
H8    H     H_    0.580680 0.123335 0.755578 0.067094
H9    H     H_    0.418832 0.345272 0.129782 0.144854
H10   H     H_    0.614315 0.755582 0.884719 0.136866
H11   H     H_    0.597058 0.767363 0.127907 0.029411
H12   H     H_    0.064667 0.326498 0.372538 0.071540
H13   H     H_    0.934337 0.505743 0.278267 0.212457
H14   H     H_    0.063838 0.666829 0.399762 0.211105
H15   H     H_    0.931156 0.659507 0.614770 0.202646
N1    N     N_R   0.500530 0.500930 0.147930 -0.182261
N2    N     N_R   0.500530 0.500890 0.852020 -0.219806
O1    O     O_R   0.500000 0.319640 0.618810 -0.532301
O2    O     O_R   0.500010 0.319680 0.381230 -0.595459
O3    O     O_R   0.379430 0.499990 0.618840 -0.548055
O4    O     O_R   0.379440 0.500030 0.381260 -0.576797
O5    O     O_R   0.499990 0.680320 0.618770 -0.573892
O6    O     O_R   0.500000 0.680360 0.381190 -0.587219
O7    O     O_R   0.620560 0.499970 0.618740 -0.589022
O8    O     O_R   0.620570 0.500010 0.381160 -0.506196
O9    O     O_3   0.904173 0.420453 0.747552 -0.579815
C31   C     C_3   0.942801 0.493018 0.852870 -0.338194
H16   H     H_    0.968512 0.581536 0.814355 0.149278
H17   H     H_    0.991373 0.440414 0.909530 0.184929
H18   H     H_    0.894210 0.516357 0.929128 0.183792
O10   O     O_3   0.462317 0.106574 0.858684 -0.508304
C32   C     C_3   0.503900 0.115880 0.988200 -0.282947
H19   H     H_    0.553014 0.190752 0.987853 0.153319
H20   H     H_    0.531837 0.027110 0.020232 0.130751
H21   H     H_    0.456161 0.139321 0.065699 0.178110
C33   C     C_3   0.090116 0.286843 0.648418 -0.437160
C34   C     C_3   0.074629 0.230974 0.791524 -0.853361
H22   H     H_    0.104746 0.290007 0.872853 0.231025
H23   H     H_    0.006125 0.220183 0.811250 0.277373
H24   H     H_    0.103018 0.138675 0.797350 0.242095
H25   H     H_    0.064316 0.221331 0.569341 0.194348
H26   H     H_    0.159358 0.292360 0.634793 0.220462
O11   O     O_3   0.399841 0.336006 0.848334 -0.504130
C35   C     C_3   0.315775 0.337454 0.893984 -0.292371
H27   H     H_    0.274774 0.293937 0.812863 0.194487
H28   H     H_    0.293345 0.432808 0.909488 0.131229
H29   H     H_    0.308040 0.281870 0.989925 0.146122
C36   C     C_3   0.698832 0.594516 0.882026 -0.220929
C37   C     C_3   0.748188 0.674033 0.779024 -0.895259
H30   H     H_    0.707864 0.699581 0.688945 0.256550
H31   H     H_    0.771999 0.759685 0.830683 0.231194
H32   H     H_    0.802987 0.623401 0.741965 0.272755
H33   H     H_    0.743888 0.573070 0.966674 0.227490
H34   H     H_    0.681066 0.503533 0.838153 0.232532
O12   O     O_3   0.674319 0.612052 0.168078 -0.534864
C38   C     C_3   0.735718 0.698964 0.215436 -0.359957
H35   H     H_    0.710066 0.756133 0.299868 0.164656
H36   H     H_    0.759458 0.758678 0.129733 0.152371
H37   H     H_    0.790308 0.648967 0.258289 0.179393
O13   O     O_3   0.082352 0.484131 0.246557 -0.573940
C39   C     C_3   0.114479 0.397572 0.153496 -0.363278
H38   H     H_    0.064400 0.330795 0.118422 0.162110
H39   H     H_    0.168366 0.348600 0.201368 0.168962
H40   H     H_    0.138175 0.447357 0.060808 0.181230
C40   C     C_3   0.904642 0.311684 0.309391 -0.451500
C41   C     C_3   0.836282 0.331961 0.198693 -0.812197
H41   H     H_    0.788471 0.396490 0.235666 0.280012
H42   H     H_    0.865061 0.369455 0.102971 0.252231
H43   H     H_    0.804138 0.242771 0.172879 0.238307
H44   H     H_    0.950623 0.248573 0.263524 0.203680
H45   H     H_    0.875189 0.261089 0.396801 0.204699
C42   C     C_3   0.092303 0.711358 0.611988 -0.395250
C43   C     C_3   0.067020 0.845547 0.593628 -0.861042
H46   H     H_    0.082061 0.878372 0.487422 0.248771
H47   H     H_    0.998729 0.856192 0.611927 0.250013
H48   H     H_    0.102620 0.904316 0.669590 0.247409
H49   H     H_    0.077590 0.681698 0.718944 0.198374
H50   H     H_    0.161831 0.709757 0.601884 0.217463

loop_
_geom_bond_atom_site_label_1
_geom_bond_atom_site_label_2
_ccdc_geom_bond_type
C28   C40   S    
O12   C38   S    
C39   H38   S    
C18   C21   A    
C43   H46   S    
C19   C20   A    
C35   H29   S    
Cu1   O3    S    
C3    C6    S    
C21   N2    A    
C37   H30   S    
C7    C8    T    
C43   H47   S    
C36   H33   S    
C18   C24   S    
C11   H4    S    
C35   H28   S    
C42   H49   S    
C33   H26   S    
C15   C16   S    
C34   H23   S    
C36   H34   S    
C12   O3    A    
C27   H12   S    
C26   H2    S    
C16   C17   S    
C25   O7    A    
Cu1   O7    S    
C1    O1    A    
Cu2   O6    S    
C13   H5    S    
C12   O4    A    
C4    H3    S    
C31   H16   S    
C39   H39   S    
C7    C30   S    
C21   C22   S    
C27   C30   S    
Cu2   N1    S    
C25   O8    A    
Cu2   O8    S    
Cu1   N2    S    
C42   C43   S    
C37   H31   S    
C40   C41   S    
C25   C29   S    
C43   H48   S    
C28   H13   S    
C31   H17   S    
C32   H21   S    
C35   H27   S    
C19   N1    A    
C33   C34   S    
O9    C31   S    
C20   O11   S    
C17   H8    S    
C32   H20   S    
C14   C23   S    
C34   H24   S    
O11   C35   S    
Cu2   O2    S    
C20   N2    A    
Cu1   Cu2   S    
C38   H37   S    
C8    C12   S    
C27   O13   S    
C2    C26   S    
C1    O2    A    
C40   H45   S    
C2    H1    S    
C9    C17   S    
C38   H36   S    
C26   C30   S    
C39   H40   S    
C41   H42   S    
C22   C24   S    
Cu1   O1    S    
C3    C4    S    
Cu2   O4    S    
C37   H32   S    
C23   O5    A    
C5    C30   S    
C9    C10   A    
C3    C28   S    
C31   H18   S    
C1    C10   S    
C40   H44   S    
C36   C37   S    
C18   N1    A    
C2    O9    S    
C23   O6    A    
C41   H43   S    
C5    H14   S    
C26   C33   S    
C32   H19   S    
C2    C3    S    
C33   H25   S    
C22   C36   S    
C17   O10   S    
C42   H50   S    
C11   C13   A    
C22   H10   S    
O13   C39   S    
Cu1   O5    S    
C9    C15   A    
C34   H22   S    
C24   O12   S    
C5    C42   S    
C10   C11   A    
C16   H7    S    
O10   C32   S    
C4    C5    S    
C6    C29   T    
C38   H35   S    
C41   H41   S    
C27   C28   S    
C24   H11   S    
C14   C15   A    
C13   C14   A    
C19   H9    S    
C16   H6    S    
C4    H15   S    
