data_str_m2_o5_o26_f0_pcu.sym.168
_audit_creation_date              2012-12-10T19:11:33-0500
_audit_creation_method            fapswitch 2.2
_symmetry_space_group_name_H-M    P1
_symmetry_Int_Tables_number       1
_space_group_crystal_system       triclinic
_cell_length_a                    7.794487
_cell_length_b                    9.080406
_cell_length_c                    17.288409
_cell_angle_alpha                 89.999586
_cell_angle_beta                  85.803899
_cell_angle_gamma                 90.00122
_cell_volume                      1220.34359168

loop_
_atom_site_label
_atom_site_type_symbol
_atom_type_description
_atom_site_fract_x
_atom_site_fract_y
_atom_site_fract_z
_atom_type_partial_charge
C1    C     C_R   0.500001 0.779906 0.499990 0.831318
C2    C     C_R   0.500000 0.220074 0.499998 0.826087
C3    C     C_1   0.500001 0.934571 0.499990 -0.190615
C4    C     C_1   0.500002 0.065382 0.499993 -0.178613
C5    C     C_R   0.477487 0.500817 0.650082 0.855122
C6    C     C_R   0.522515 0.500824 0.349918 0.855220
C7    C     C_R   0.463848 0.504318 0.734225 -0.225373
C8    C     C_R   0.536175 0.504314 0.265776 -0.225381
C9    C     C_R   0.556021 0.401183 0.774237 -0.339394
C10   C     C_R   0.443940 0.401227 0.225763 -0.339607
C11   C     C_R   0.540204 0.397199 0.854939 0.512272
C12   C     C_R   0.459834 0.397195 0.145059 0.512395
C13   C     C_R   0.438102 0.503582 0.896074 -0.097884
C14   C     C_R   0.562055 0.503516 0.103931 -0.097815
C15   C     C_R   0.344947 0.607993 0.855898 0.070477
C16   C     C_R   0.655237 0.607911 0.144108 0.070351
C17   C     C_R   0.359600 0.609720 0.774624 0.455802
C18   C     C_R   0.640506 0.609662 0.225381 0.455878
C19   C     C_2   0.428509 0.504951 0.980965 -0.060240
C20   C     C_2   0.571676 0.504875 0.019039 -0.059935
Cu1   Cu    Cu3+1 0.330920 0.500000 0.500000 1.032158
Cu2   Cu    Cu3+1 0.669080 0.500000 0.500000 1.032176
H1    H     H_    0.637006 0.320933 0.742758 0.184093
H2    H     H_    0.362828 0.321068 0.257243 0.184077
H3    H     H_    0.697136 0.511562 0.987381 0.203267
H4    H     H_    0.303062 0.511754 0.012626 0.203286
N1    N     N_1   0.923170 0.500000 0.500010 -0.034872
N2    N     N_1   0.076830 0.500000 0.499990 -0.034874
O1    O     O_R   0.357240 0.711600 0.500000 -0.571485
O2    O     O_R   0.642760 0.288400 0.500000 -0.583759
O3    O     O_R   0.642760 0.711600 0.500000 -0.571478
O4    O     O_R   0.357240 0.288400 0.500000 -0.583759
O5    O     O_R   0.340660 0.500000 0.613590 -0.548036
O6    O     O_R   0.659340 0.500000 0.386410 -0.548031
O7    O     O_R   0.626230 0.500000 0.613600 -0.588662
O8    O     O_R   0.373770 0.500000 0.386400 -0.588691
I1    I     I_    0.190189 0.771020 0.915866 -0.320235
I2    I     I_    0.810062 0.770898 0.084139 -0.320224
O9    O     O_3   0.370590 0.292118 0.106219 -0.571128
C21   C     C_3   0.463454 0.158837 0.105942 -0.248736
H5    H     H_    0.469979 0.114876 0.165705 0.147517
H6    H     H_    0.595288 0.172270 0.077371 0.185611
H7    H     H_    0.395533 0.076006 0.072242 0.204635
O10   O     O_3   0.629340 0.292033 0.893758 -0.571118
C22   C     C_3   0.535894 0.159027 0.894323 -0.248244
H8    H     H_    0.528626 0.114936 0.834624 0.147524
H9    H     H_    0.404338 0.172911 0.923128 0.185795
H10   H     H_    0.603840 0.076092 0.927952 0.204638
O11   O     O_3   0.731671 0.712106 0.265182 -0.539548
C23   C     C_3   0.623603 0.833739 0.283715 -0.249499
H11   H     H_    0.697359 0.916576 0.314803 0.191525
H12   H     H_    0.509989 0.801839 0.322778 0.132027
H13   H     H_    0.580590 0.887181 0.230563 0.159667
O12   O     O_3   0.268345 0.712124 0.734838 -0.539555
C24   C     C_3   0.376378 0.833740 0.716199 -0.249123
H14   H     H_    0.302352 0.916740 0.685349 0.191538
H15   H     H_    0.489542 0.801842 0.676864 0.132058
H16   H     H_    0.420081 0.886989 0.769266 0.159403

loop_
_geom_bond_atom_site_label_1
_geom_bond_atom_site_label_2
_ccdc_geom_bond_type
C1    C3    S    
C7    C17   A    
C2    C4    S    
C24   H14   S    
C6    O8    A    
C24   H15   S    
C14   C20   S    
C8    C18   A    
C11   C13   A    
C23   H12   S    
C19   C20   D    
C13   C15   A    
C2    O2    A    
C16   C18   A    
C21   H7    S    
C12   O9    S    
C1    O1    A    
C23   H11   S    
C11   O10   S    
Cu1   O8    S    
C22   H8    S    
Cu2   O7    S    
C9    C11   A    
C10   C12   A    
C5    O7    A    
C21   H6    S    
C21   H5    S    
Cu1   N2    S    
C12   C14   A    
C5    C7    S    
Cu2   N1    S    
C22   H9    S    
Cu2   O6    S    
Cu1   O4    S    
C14   C16   A    
C24   H16   S    
C23   H13   S    
Cu1   O5    S    
Cu2   O3    S    
C13   C19   S    
C3    C4    T    
C7    C9    A    
C1    O3    A    
O10   C22   S    
C2    O4    A    
O11   C23   S    
C20   H3    S    
C22   H10   S    
O9    C21   S    
C15   C17   A    
C19   H4    S    
O12   C24   S    
C9    H1    S    
C6    C8    S    
Cu2   O2    S    
C10   H2    S    
Cu1   Cu2   S    
Cu1   O1    S    
C17   O12   S    
C8    C10   A    
C15   I1    S    
C6    O6    A    
C18   O11   S    
C16   I2    S    
N1    N2    T    
C5    O5    A    
