data_str_m2_o4_o4_f0_pcu.sym.71
_audit_creation_date              2012-10-26T19:15:07-0400
_audit_creation_method            fapswitch 2.2
_symmetry_space_group_name_H-M    P1
_symmetry_Int_Tables_number       1
_space_group_crystal_system       triclinic
_cell_length_a                    10.768915
_cell_length_b                    10.90696
_cell_length_c                    9.637497
_cell_angle_alpha                 90.917996
_cell_angle_beta                  89.561207
_cell_angle_gamma                 90.721845
_cell_volume                      1131.71646413

loop_
_atom_site_label
_atom_site_type_symbol
_atom_type_description
_atom_site_fract_x
_atom_site_fract_y
_atom_site_fract_z
_atom_type_partial_charge
C1    C     C_R   0.505886 0.262400 0.498423 0.533664
C2    C     C_R   0.516399 0.938491 0.622074 0.019384
C3    C     C_3   0.631141 0.924809 0.704900 -0.263617
C4    C     C_R   0.262777 0.498026 0.500513 0.542804
C5    C     C_3   0.656153 0.057878 0.682080 -0.279114
C6    C     C_R   0.556021 0.592862 0.072746 0.138263
C7    C     C_R   0.426464 0.421183 0.073640 0.012177
C8    C     C_R   0.426402 0.421239 0.924925 -0.006527
C9    C     C_R   0.554775 0.593046 0.927528 0.137020
C10   C     C_3   0.682556 0.644021 0.915992 -0.267839
C11   C     C_3   0.683438 0.651894 0.074536 -0.072246
C12   C     C_R   0.936416 0.555425 0.606113 0.020295
C13   C     C_R   0.497245 0.737253 0.500684 0.543486
C14   C     C_R   0.737294 0.499256 0.499941 0.551521
C15   C     C_R   0.064363 0.553810 0.606988 0.024368
C16   C     C_R   0.129370 0.490843 0.503362 0.020556
C17   C     C_R   0.064286 0.416346 0.407826 -0.150979
C18   C     C_R   0.934564 0.415994 0.408857 -0.128796
C19   C     C_R   0.870678 0.492733 0.502346 0.049340
C20   C     C_2   0.790803 0.583542 0.132387 0.610961
C21   C     C_R   0.558903 0.108583 0.240918 0.061625
C22   C     C_R   0.489104 0.111974 0.119396 -0.112231
C23   C     C_3   0.933743 0.688785 0.644491 -0.276323
C24   C     C_R   0.539664 0.167558 0.002203 -0.142586
C25   C     C_R   0.658991 0.220365 0.006888 -0.073319
C26   C     C_R   0.732393 0.206359 0.123645 -0.071838
C27   C     C_R   0.682352 0.151789 0.241031 -0.066320
C28   C     C_3   0.074383 0.686351 0.646698 -0.263299
C29   C     C_R   0.530971 0.066027 0.616773 0.005021
C30   C     C_R   0.512187 0.127820 0.494227 -0.005723
C31   C     C_R   0.506955 0.058529 0.369383 -0.041803
C32   C     C_R   0.487634 0.931913 0.373859 -0.158921
C33   C     C_R   0.492235 0.870656 0.500714 -0.005801
Cu1   Cu    Cu3+1 0.499990 0.499980 0.640670 0.934950
Cu2   Cu    Cu3+1 0.500010 0.500020 0.359330 0.979455
H1    H     H_    0.113379 0.360903 0.331530 0.112445
H2    H     H_    0.884355 0.358743 0.335275 0.118916
H3    H     H_    0.896124 0.746031 0.560456 0.147784
H4    H     H_    0.892828 0.706188 0.748758 0.128249
H5    H     H_    0.118831 0.742801 0.564535 0.139839
H6    H     H_    0.113535 0.700091 0.752292 0.145880
H7    H     H_    0.483624 0.880332 0.276837 0.136228
H8    H     H_    0.607404 0.906882 0.815039 0.137103
H9    H     H_    0.905755 0.440610 0.111230 0.317042
H10   H     H_    0.395206 0.075322 0.116790 0.098821
H11   H     H_    0.485011 0.172340 0.908867 0.115279
H12   H     H_    0.701605 0.863981 0.655804 0.131739
H13   H     H_    0.695980 0.269806 0.918973 0.142709
H14   H     H_    0.827744 0.238116 0.123803 0.115174
H15   H     H_    0.739067 0.144664 0.332876 0.082544
H16   H     H_    0.665539 0.110557 0.778084 0.139352
H17   H     H_    0.733493 0.074581 0.607072 0.126364
H18   H     H_    0.369403 0.355044 0.128113 0.114318
H19   H     H_    0.368891 0.355461 0.869105 0.110775
H20   H     H_    0.746909 0.576295 0.868225 0.185484
H21   H     H_    0.686778 0.734401 0.867696 0.087352
H22   H     H_    0.678813 0.748272 0.114044 0.092214
N1    N     N_R   0.500790 0.500930 0.147930 -0.223503
N2    N     N_R   0.500790 0.500890 0.852020 -0.230534
O1    O     O_R   0.500000 0.319640 0.618810 -0.510669
O2    O     O_R   0.821171 0.467919 0.079457 -0.728474
O3    O     O_R   0.500010 0.319680 0.381230 -0.497463
O4    O     O_R   0.319650 0.499970 0.618810 -0.502590
O5    O     O_R   0.319660 0.500010 0.381230 -0.508294
O6    O     O_R   0.499990 0.680320 0.618770 -0.498173
O7    O     O_R   0.500000 0.680360 0.381190 -0.512899
O8    O     O_R   0.680340 0.499990 0.618770 -0.516899
O9    O     O_R   0.680350 0.500030 0.381190 -0.463884
O10   O     O_2   0.857673 0.634420 0.218166 -0.529840

loop_
_geom_bond_atom_site_label_1
_geom_bond_atom_site_label_2
_ccdc_geom_bond_type
Cu1   O8    S    
C4    C16   S    
C14   O8    A    
C27   H15   S    
C5    H17   S    
C13   C33   S    
C29   C30   A    
C17   H1    S    
H9    O2    S    
C3    H12   S    
C23   H3    S    
C10   H21   S    
C9    C10   S    
C4    O5    A    
C7    N1    A    
C31   C32   A    
C25   H13   S    
C12   C15   A    
Cu1   Cu2   S    
C24   H11   S    
C32   C33   A    
C6    C9    A    
C2    C3    S    
C15   C28   S    
C7    C8    A    
C13   O6    A    
C21   C22   A    
C1    O3    A    
Cu1   O1    S    
C10   H20   S    
C21   C31   S    
C12   C23   S    
C3    H8    S    
C26   C27   A    
Cu2   O5    S    
C11   H22   S    
Cu2   O9    S    
Cu2   N1    S    
C23   H4    S    
C12   C19   A    
C4    O4    A    
C1    C30   S    
C18   H2    S    
C17   C18   A    
Cu2   O3    S    
C5    C29   S    
C13   O7    A    
C2    C29   A    
C8    N2    A    
C21   C27   A    
C30   C31   A    
C20   O10   D    
C22   C24   A    
C11   C20   S    
C26   H14   S    
C10   C11   S    
C7    H18   S    
C15   C16   A    
C28   H6    S    
C6    C11   S    
C22   H10   S    
C24   C25   A    
Cu1   O6    S    
C18   C19   A    
C1    O1    A    
C8    H19   S    
C20   O2    S    
C6    N1    A    
C2    C33   A    
Cu1   O4    S    
C14   O9    A    
Cu2   O7    S    
C3    C5    S    
C25   C26   A    
C23   C28   S    
Cu1   N2    S    
C14   C19   S    
C32   H7    S    
C5    H16   S    
C28   H5    S    
C16   C17   A    
C9    N2    A    
