data_str_m2_o1_o4_f0_pcu.sym.75
_audit_creation_date              2013-03-05T16:06:55-0500
_audit_creation_method            fapswitch 2.2
_symmetry_space_group_name_H-M    P1
_symmetry_Int_Tables_number       1
_space_group_crystal_system       triclinic
_cell_length_a                    10.817088
_cell_length_b                    9.719983
_cell_length_c                    10.994187
_cell_angle_alpha                 88.253003
_cell_angle_beta                  94.086182
_cell_angle_gamma                 89.366273
_cell_volume                      1152.37396087

loop_
_atom_site_label
_atom_site_type_symbol
_atom_site_description
_atom_site_fract_x
_atom_site_fract_y
_atom_site_fract_z
_atom_type_partial_charge
O1    O     O_R   0.319640 0.618740 0.499990 -0.569072
O2    O     O_R   0.680360 0.618740 0.500010 -0.603894
O3    O     O_R   0.319620 0.381170 0.499990 -0.548534
O4    O     O_R   0.680380 0.381170 0.500010 -0.545890
C1    C     C_R   0.265597 0.500167 0.518019 0.849499
C2    C     C_R   0.738845 0.497758 0.495901 0.877392
O5    O     O_R   0.499990 0.618810 0.319660 -0.613671
O6    O     O_R   0.500010 0.618810 0.680340 -0.594059
O7    O     O_R   0.499960 0.381240 0.319650 -0.506660
O8    O     O_R   0.500040 0.381240 0.680350 -0.504882
C3    C     C_R   0.506708 0.502131 0.263657 0.891126
C4    C     C_R   0.499551 0.498162 0.737542 0.858849
Cu1   Cu    Cu3+1 0.500000 0.640660 0.500000 0.963708
Cu2   Cu    Cu3+1 0.500000 0.359340 0.500000 1.104300
C5    C     C_R   0.477900 0.621168 0.058338 -0.012252
C6    C     C_R   0.476379 0.616637 0.932345 0.030007
C7    C     C_R   0.516142 0.505108 0.130991 -0.240133
C8    C     C_R   0.497519 0.494978 0.871819 -0.257091
C9    C     C_R   0.546050 0.382598 0.072558 0.266810
C10   C     C_R   0.522631 0.373589 0.944929 0.256179
C11   C     C_3   0.522973 0.760326 0.915746 0.231897
C12   C     C_3   0.521438 0.769163 0.056979 0.208681
C13   C     C_R   0.073537 0.376517 0.567816 0.106190
C14   C     C_R   0.946842 0.367045 0.530816 0.122714
C15   C     C_R   0.877149 0.490289 0.498015 -0.179442
C16   C     C_R   0.134293 0.500705 0.546704 -0.193018
C17   C     C_R   0.942217 0.613291 0.480442 0.210990
C18   C     C_R   0.063644 0.622376 0.531682 0.231359
C19   C     C_R   0.409554 0.078819 0.433408 0.403000
C20   C     C_R   0.587837 0.067656 0.568880 0.352756
C21   C     C_R   0.404680 0.930496 0.439682 0.096079
C22   C     C_R   0.599599 0.926033 0.545376 0.075384
N1    N     N_R   0.500000 0.852070 0.500000 -0.205381
N2    N     N_R   0.500000 0.147940 0.500000 -0.284953
N3    N     N_R   0.612579 0.273360 0.140906 0.176228
O9    O     O_R   0.565192 0.151756 0.151527 -0.323218
O10   O     O_R   0.717302 0.299085 0.201110 -0.340925
N4    N     N_R   0.519889 0.241298 0.891860 0.167191
O11   O     O_R   0.610215 0.153309 0.916720 -0.274453
O12   O     O_R   0.416516 0.200367 0.837849 -0.401114
C23   C     C_3   0.653604 0.765036 0.866789 -0.703211
H1    H     H_    0.648203 0.772818 0.766460 0.256692
H2    H     H_    0.703569 0.856853 0.899919 0.287650
H3    H     H_    0.709902 0.671841 0.895602 0.205222
C24   C     C_3   0.423983 0.868910 0.101475 -0.694805
H4    H     H_    0.445719 0.888206 0.198790 0.243481
H5    H     H_    0.426930 0.970590 0.053673 0.292134
H6    H     H_    0.328588 0.827992 0.088398 0.216035
C25   C     C_3   0.428779 0.853549 0.839376 -0.628192
H7    H     H_    0.333384 0.842318 0.869175 0.243766
H8    H     H_    0.457973 0.960780 0.847858 0.281581
H9    H     H_    0.425830 0.832591 0.741150 0.264392
C26   C     C_3   0.648485 0.789654 0.126188 -0.624096
H10   H     H_    0.716162 0.710855 0.101367 0.252555
H11   H     H_    0.684007 0.893636 0.104616 0.270002
H12   H     H_    0.640704 0.782631 0.226015 0.257107
C27   C     C_3   0.137668 0.261938 0.646218 -0.635859
H13   H     H_    0.229336 0.293536 0.686769 0.245119
H14   H     H_    0.081047 0.236625 0.724053 0.235250
H15   H     H_    0.149372 0.167247 0.594857 0.273077
C28   C     C_3   0.899119 0.223507 0.509629 -0.616833
H16   H     H_    0.814853 0.218503 0.447281 0.255234
H17   H     H_    0.968159 0.163594 0.462284 0.261450
H18   H     H_    0.888074 0.170255 0.598309 0.258347
N5    N     N_R   0.905248 0.701332 0.376633 0.116283
O13   O     O_R   0.840244 0.648798 0.286076 -0.393147
O14   O     O_R   0.961758 0.816523 0.356818 -0.321909
N6    N     N_R   0.104091 0.745492 0.592166 0.130595
O15   O     O_R   0.197791 0.739206 0.673349 -0.376380
O16   O     O_R   0.032708 0.854464 0.588251 -0.344069
N7    N     N_R   0.318471 0.155531 0.357165 0.145600
O17   O     O_R   0.203809 0.156854 0.385351 -0.373032
O18   O     O_R   0.341023 0.186152 0.245075 -0.318569
N8    N     N_R   0.671631 0.118407 0.666346 0.136111
O19   O     O_R   0.688026 0.246986 0.687215 -0.307756
O20   O     O_R   0.735094 0.031415 0.738991 -0.371084
C29   C     C_3   0.297151 0.863255 0.370546 -0.618525
H19   H     H_    0.258481 0.926799 0.291265 0.236595
H20   H     H_    0.324237 0.766182 0.330402 0.239857
H21   H     H_    0.221335 0.848056 0.430775 0.284144
C30   C     C_3   0.729420 0.878483 0.529669 -0.564829
H22   H     H_    0.796162 0.963945 0.530173 0.224553
H23   H     H_    0.763939 0.804489 0.603168 0.242974
H24   H     H_    0.730857 0.840044 0.436416 0.254796

loop_
_geom_bond_atom_site_label_1
_geom_bond_atom_site_label_2
_geom_bond_distance
_ccdc_geom_bond_type
N4    O12   1.300338 A    
C6    C11   1.500372 S    
C23   H1    1.100660 S    
N3    O9    1.298840 A    
C11   C25   1.541255 S    
C30   H22   1.106470 S    
C26   H10   1.107183 S    
O5    C3    1.310624 A    
C22   C30   1.496832 S    
C14   C28   1.511921 S    
N8    O20   1.300747 A    
O1    C1    1.314095 A    
C18   N6    1.443713 S    
N4    O11   1.300007 A    
C20   N8    1.454951 S    
C13   C16   1.401823 A    
C2    C15   1.495501 S    
C5    C6    1.386159 A    
C5    C7    1.403346 A    
C24   H5    1.106986 S    
C28   H17   1.109980 S    
O2    Cu1   1.960216 S    
C5    C12   1.518563 S    
C9    C10   1.413536 A    
N6    O15   1.301553 A    
C25   H8    1.097175 S    
C13   C14   1.406328 A    
C21   N1    1.392238 A    
C29   H19   1.107109 S    
C29   H20   1.099370 S    
C11   C12   1.558989 S    
C23   H2    1.106217 S    
O2    C2    1.332654 A    
C30   H23   1.106921 S    
C21   C29   1.509617 S    
C12   C26   1.540626 S    
C26   H11   1.110128 S    
N8    O19   1.289435 A    
C20   N2    1.389326 A    
C14   C15   1.431204 A    
O4    C2    1.304994 A    
O8    Cu2   2.000606 S    
N7    O18   1.299553 A    
C27   H15   1.105125 S    
C24   H6    1.111346 S    
N5    O14   1.301537 A    
C24   H4    1.101131 S    
C19   N2    1.373691 A    
C28   H18   1.104508 S    
O7    Cu2   1.987702 S    
Cu1   N1    2.054902 S    
C17   N5    1.436190 S    
C10   N4    1.427887 S    
O6    C4    1.313907 A    
C25   H9    1.103357 S    
O7    C3    1.315002 A    
O3    Cu2   1.960347 S    
O8    C4    1.315628 A    
C11   C23   1.548164 S    
C6    C8    1.398971 A    
C25   H7    1.110193 S    
C23   H3    1.111113 S    
O1    Cu1   1.964904 S    
C30   H24   1.102935 S    
C26   H12   1.106797 S    
C13   C27   1.517804 S    
C3    C7    1.468794 S    
N3    O10   1.301295 A    
O3    C1    1.316871 A    
Cu2   N2    2.054804 S    
C15   C17   1.409274 A    
C16   C18   1.400019 A    
C22   N1    1.374353 A    
N7    O17   1.299700 A    
C19   C21   1.442976 A    
C9    N3    1.437819 S    
C20   C22   1.414362 A    
C29   H21   1.098633 S    
C27   H13   1.108339 S    
C7    C9    1.415310 A    
C8    C10   1.419858 A    
O4    Cu2   1.965013 S    
C28   H16   1.103206 S    
C27   H14   1.110459 S    
C1    C16   1.476676 S    
O6    Cu1   1.987578 S    
O5    Cu1   2.000454 S    
C12   C24   1.539621 S    
N6    O16   1.301693 A    
N5    O13   1.298287 A    
C4    C8    1.477387 S    
C17   C18   1.396613 A    
Cu1   Cu2   2.734426 S    
C19   N7    1.434323 S    
