data_str_m2_o4_o22_f0_pcu.sym.102
_audit_creation_date              2012-12-10T19:03:03-0500
_audit_creation_method            fapswitch 2.2
_symmetry_space_group_name_H-M    P1
_symmetry_Int_Tables_number       1
_space_group_crystal_system       triclinic
_cell_length_a                    10.72797
_cell_length_b                    10.790946
_cell_length_c                    9.544504
_cell_angle_alpha                 90.204592
_cell_angle_beta                  89.933604
_cell_angle_gamma                 90.007182
_cell_volume                      1104.91118602

loop_
_atom_site_label
_atom_site_type_symbol
_atom_type_description
_atom_site_fract_x
_atom_site_fract_y
_atom_site_fract_z
_atom_type_partial_charge
C1    C     C_R   0.494473 0.262615 0.499862 0.781083
C2    C     C_3   0.878160 0.499936 0.498922 0.157891
C3    C     C_3   0.927982 0.616789 0.575515 -0.384450
C4    C     C_3   0.928820 0.500228 0.346297 -0.368605
C5    C     C_R   0.545527 0.065227 0.606850 0.150329
C6    C     C_R   0.482882 0.129241 0.501722 -0.194194
C7    C     C_R   0.408432 0.062372 0.404688 -0.012656
C8    C     C_R   0.415646 0.932227 0.404347 -0.200505
C9    C     C_R   0.491378 0.870647 0.501646 -0.146034
C10   C     C_R   0.549130 0.937906 0.607773 0.129363
C11   C     C_3   0.682858 0.936474 0.651971 -0.494996
C12   C     C_R   0.259811 0.499887 0.499826 0.739991
C13   C     C_3   0.678223 0.076872 0.651717 -0.454792
C14   C     C_R   0.596217 0.552546 0.073807 0.255226
C15   C     C_R   0.411594 0.437562 0.074274 -0.065297
C16   C     C_R   0.411623 0.437497 0.925378 -0.066065
C17   C     C_R   0.596210 0.552484 0.926456 0.260082
C18   C     C_3   0.636774 0.684385 0.921314 -0.514673
C19   C     C_3   0.637054 0.684452 0.080302 -0.492050
C20   C     C_R   0.499896 0.737553 0.500203 0.809718
C21   C     C_R   0.740183 0.499985 0.499736 0.755315
C22   C     C_3   0.071843 0.382902 0.574457 -0.380336
C23   C     C_3   0.927950 0.382753 0.573990 -0.373156
C24   C     C_3   0.071858 0.616892 0.575293 -0.368648
C25   C     C_3   0.071523 0.499738 0.346362 -0.370810
C26   C     C_3   0.121831 0.499857 0.499052 0.157792
Cu1   Cu    Cu3+1 0.499990 0.499980 0.640670 0.936315
Cu2   Cu    Cu3+1 0.500010 0.500020 0.359330 0.932030
H1    H     H_    0.105786 0.380605 0.684581 0.168203
H2    H     H_    0.895090 0.583829 0.289768 0.163127
H3    H     H_    0.106640 0.701868 0.522240 0.154999
H4    H     H_    0.362591 0.878720 0.328782 0.188734
H5    H     H_    0.695867 0.898038 0.758538 0.201745
H6    H     H_    0.745667 0.897096 0.570407 0.188492
H7    H     H_    0.686869 0.118434 0.757997 0.202694
H8    H     H_    0.738459 0.119386 0.570074 0.183755
H9    H     H_    0.338690 0.388963 0.129849 0.137120
H10   H     H_    0.106990 0.297864 0.521146 0.146763
H11   H     H_    0.338832 0.388720 0.869535 0.139729
H12   H     H_    0.731385 0.694325 0.875180 0.182622
H13   H     H_    0.564309 0.746230 0.876572 0.226049
H14   H     H_    0.731833 0.694379 0.125871 0.184974
H15   H     H_    0.565264 0.746861 0.126167 0.228289
H16   H     H_    0.893505 0.297953 0.519798 0.148035
H17   H     H_    0.893188 0.379706 0.683853 0.170540
H18   H     H_    0.106171 0.619542 0.685279 0.173406
H19   H     H_    0.893703 0.619006 0.685594 0.166283
H20   H     H_    0.105979 0.582799 0.289224 0.174339
H21   H     H_    0.105460 0.416214 0.289006 0.164594
H22   H     H_    0.894484 0.417268 0.288311 0.172060
N1    N     N_R   0.500800 0.500930 0.147930 -0.187336
N2    N     N_R   0.500800 0.500890 0.852020 -0.187473
O1    O     O_R   0.500000 0.319640 0.618810 -0.569529
O2    O     O_R   0.500010 0.319680 0.381230 -0.584888
O3    O     O_R   0.317690 0.499960 0.618790 -0.589801
O4    O     O_R   0.317700 0.500000 0.381210 -0.598285
O5    O     O_R   0.499990 0.680320 0.618770 -0.573617
O6    O     O_R   0.500000 0.680360 0.381190 -0.582511
O7    O     O_R   0.682300 0.500000 0.618790 -0.585475
O8    O     O_R   0.682310 0.500040 0.381210 -0.585443
H23   H     H_    0.893081 0.701885 0.522957 0.146784
C27   C     C_2   0.322179 0.125401 0.306294 0.351524
H24   H     H_    0.298217 0.222174 0.320711 0.064649
O9    O     O_2   0.274764 0.069141 0.208784 -0.563017

loop_
_geom_bond_atom_site_label_1
_geom_bond_atom_site_label_2
_ccdc_geom_bond_type
C2    C4    S    
C1    O2    A    
Cu1   O1    S    
C7    C27   S    
C21   O7    A    
C27   H24   S    
C23   H17   S    
C22   H1    S    
C15   N1    A    
C9    C10   A    
C9    C20   S    
C5    C13   S    
C14   N1    A    
C14   C17   A    
C19   H14   S    
C27   O9    D    
C24   H18   S    
C2    C21   S    
C3    H23   S    
C17   C18   S    
Cu2   O4    S    
C24   H3    S    
C7    C8    A    
Cu1   O7    S    
C1    O1    A    
C11   C13   S    
C25   H20   S    
C3    C24   S    
C12   O4    A    
C21   O8    A    
C17   N2    A    
C3    H19   S    
C19   H15   S    
C13   H7    S    
C6    C7    A    
Cu2   O6    S    
Cu2   O8    S    
Cu1   O5    S    
C5    C6    A    
C24   C26   S    
Cu2   N1    S    
C25   H21   S    
C12   O3    A    
C10   C11   S    
Cu1   O3    S    
C16   H11   S    
C20   O6    A    
C15   C16   A    
C22   H10   S    
C4    C25   S    
C11   H5    S    
Cu1   N2    S    
C13   H8    S    
C18   C19   S    
C22   C26   S    
C18   H13   S    
C12   C26   S    
C2    C23   S    
C20   O5    A    
C18   H12   S    
C22   C23   S    
C15   H9    S    
C2    C3    S    
C1    C6    S    
C5    C10   A    
C25   C26   S    
Cu2   O2    S    
C14   C19   S    
C11   H6    S    
C4    H2    S    
C23   H16   S    
C16   N2    A    
C4    H22   S    
C8    C9    A    
Cu1   Cu2   S    
C8    H4    S    
