data_str_m2_o1_o17_f0_pcu.sym.22
_audit_creation_date              2012-10-26T20:43:00-0400
_audit_creation_method            fapswitch 2.2
_symmetry_space_group_name_H-M    P1
_symmetry_Int_Tables_number       1
_space_group_crystal_system       triclinic
_cell_length_a                    10.766318
_cell_length_b                    9.503779
_cell_length_c                    15.054221
_cell_angle_alpha                 89.983173
_cell_angle_beta                  88.874994
_cell_angle_gamma                 90.327568
_cell_volume                      1540.03631699

loop_
_atom_site_label
_atom_site_type_symbol
_atom_type_description
_atom_site_fract_x
_atom_site_fract_y
_atom_site_fract_z
_atom_type_partial_charge
C1    C     C_R   0.262132 0.499664 0.499351 0.546314
C2    C     C_R   0.128380 0.499114 0.498810 0.015857
C3    C     C_R   0.425291 0.074011 0.444165 0.011982
C4    C     C_R   0.574709 0.925989 0.555835 0.012007
C5    C     C_R   0.574755 0.074914 0.555806 0.010864
C6    C     C_R   0.425244 0.925086 0.444194 0.010856
C7    C     C_R   0.505138 0.499956 0.328883 0.546542
C8    C     C_R   0.494863 0.500044 0.671118 0.546521
C9    C     C_R   0.574467 0.417208 0.811157 -0.153863
C10   C     C_R   0.425541 0.582785 0.188842 -0.153864
C11   C     C_R   0.488317 0.499403 0.767787 -0.017420
C12   C     C_R   0.737867 0.500336 0.500650 0.546339
C13   C     C_R   0.511690 0.500595 0.232214 -0.017418
C14   C     C_R   0.401471 0.581826 0.816157 -0.044060
C15   C     C_R   0.598551 0.418179 0.183851 -0.044051
C16   C     C_R   0.398840 0.574631 0.910669 -0.000137
C17   C     C_R   0.601178 0.425356 0.089333 -0.000133
C18   C     C_R   0.495122 0.499082 0.953354 0.031095
C19   C     C_R   0.504891 0.500896 0.046647 0.031094
C20   C     C_R   0.581947 0.421092 0.902838 -0.006282
C21   C     C_R   0.418066 0.578895 0.097160 -0.006280
C22   C     C_R   0.306141 0.641268 0.964745 -0.016407
C23   C     C_R   0.320373 0.647384 0.056426 -0.143299
C24   C     C_R   0.693883 0.358718 0.035258 -0.016409
C25   C     C_R   0.325513 0.685194 0.767551 0.057950
C26   C     C_R   0.359668 0.828073 0.767514 -0.075152
C27   C     C_R   0.289215 0.926298 0.721510 -0.105899
C28   C     C_R   0.183686 0.882734 0.676199 -0.094188
C29   C     C_R   0.149435 0.740669 0.675898 -0.084508
C30   C     C_R   0.221538 0.641458 0.719723 -0.056772
C31   C     C_R   0.674571 0.314890 0.232472 0.057953
C32   C     C_R   0.778566 0.358747 0.280232 -0.056872
C33   C     C_R   0.850771 0.259608 0.324045 -0.084523
C34   C     C_R   0.679644 0.352609 0.943571 -0.143276
C35   C     C_R   0.816586 0.117523 0.323806 -0.094162
C36   C     C_R   0.711018 0.073844 0.278581 -0.105886
C37   C     C_R   0.640468 0.171994 0.232583 -0.075081
C38   C     C_R   0.183882 0.686381 0.932184 0.038823
C39   C     C_R   0.150928 0.829154 0.933015 -0.093531
C40   C     C_R   0.032604 0.869925 0.906621 -0.115613
C41   C     C_R   0.945815 0.768396 0.881143 -0.105359
C42   C     C_R   0.977083 0.625862 0.882159 -0.115486
C43   C     C_R   0.095557 0.584726 0.907944 -0.096697
C44   C     C_R   0.816154 0.313583 0.067810 0.038846
C45   C     C_R   0.062749 0.382783 0.532588 -0.157926
C46   C     C_R   0.904538 0.415231 0.091962 -0.096683
C47   C     C_R   0.023016 0.374061 0.117721 -0.115489
C48   C     C_R   0.054212 0.231502 0.118796 -0.105317
C49   C     C_R   0.967369 0.129974 0.093402 -0.115614
C50   C     C_R   0.849044 0.170780 0.067032 -0.093518
C51   C     C_R   0.937250 0.617216 0.467416 -0.157929
C52   C     C_R   0.934365 0.383878 0.534077 -0.155090
C53   C     C_R   0.065634 0.616120 0.465925 -0.155137
C54   C     C_R   0.871620 0.500886 0.501193 0.015886
Cu1   Cu    Cu3+1 0.500000 0.640660 0.500000 0.931602
Cu2   Cu    Cu3+1 0.500000 0.359340 0.500000 0.931602
H1    H     H_    0.365508 0.129867 0.399446 0.107167
H2    H     H_    0.066612 0.707562 0.642086 0.116325
H3    H     H_    0.194766 0.531463 0.718415 0.089217
H4    H     H_    0.805287 0.468761 0.281494 0.089217
H5    H     H_    0.933631 0.292801 0.357790 0.116347
H6    H     H_    0.872082 0.041244 0.358451 0.093179
H7    H     H_    0.684387 0.963843 0.278607 0.107887
H8    H     H_    0.559411 0.136975 0.197082 0.094685
H9    H     H_    0.217029 0.908474 0.953551 0.100466
H10   H     H_    0.007946 0.980164 0.906374 0.104572
H11   H     H_    0.854129 0.800102 0.861094 0.103539
H12   H     H_    0.634491 0.870133 0.600554 0.107174
H13   H     H_    0.909420 0.547249 0.863263 0.108942
H14   H     H_    0.118470 0.473927 0.909328 0.108929
H15   H     H_    0.881685 0.526061 0.090528 0.108931
H16   H     H_    0.090726 0.452674 0.136547 0.108958
H17   H     H_    0.145909 0.199768 0.138834 0.103517
H18   H     H_    0.991966 0.019704 0.093692 0.104535
H19   H     H_    0.782896 0.091458 0.046559 0.100456
H20   H     H_    0.250092 0.699652 0.097049 0.101102
H21   H     H_    0.749926 0.300344 0.902946 0.101115
H22   H     H_    0.110527 0.292197 0.558781 0.121328
H23   H     H_    0.634648 0.131490 0.600462 0.100504
H24   H     H_    0.889473 0.707802 0.441222 0.121333
H25   H     H_    0.884255 0.293619 0.560750 0.117934
H26   H     H_    0.115744 0.706378 0.439251 0.117928
H27   H     H_    0.365351 0.868510 0.399539 0.100505
H28   H     H_    0.641418 0.356443 0.772532 0.106720
H29   H     H_    0.358592 0.643557 0.227464 0.106722
H30   H     H_    0.440699 0.863010 0.803070 0.094704
H31   H     H_    0.315901 0.036278 0.721531 0.107916
H32   H     H_    0.128276 0.959068 0.641539 0.093194
N1    N     N_R   0.500000 0.852070 0.500000 -0.220497
N2    N     N_R   0.500000 0.147930 0.500000 -0.220501
O1    O     O_R   0.319640 0.618740 0.499990 -0.501058
O2    O     O_R   0.680360 0.381260 0.500010 -0.501039
O3    O     O_R   0.680360 0.618740 0.500010 -0.511395
O4    O     O_R   0.319640 0.381260 0.499990 -0.511390
O5    O     O_R   0.499970 0.618800 0.370260 -0.511430
O6    O     O_R   0.500030 0.381200 0.629740 -0.511434
O7    O     O_R   0.500030 0.618800 0.629740 -0.491546
O8    O     O_R   0.499970 0.381200 0.370260 -0.491557

loop_
_geom_bond_atom_site_label_1
_geom_bond_atom_site_label_2
_ccdc_geom_bond_type
Cu1   Cu2   S    
C10   H29   S    
C40   C41   A    
C7    O8    A    
C41   C42   A    
C35   C36   A    
C8    O6    A    
Cu2   O8    S    
C23   H20   S    
Cu1   O3    S    
C3    C6    A    
C41   H11   S    
Cu2   O4    S    
C26   C27   A    
C3    N2    A    
C36   C37   A    
C19   C21   A    
C18   C19   A    
C34   H21   S    
C38   C39   A    
C11   C14   A    
C22   C38   S    
C15   C17   A    
C1    C2    S    
C51   H24   S    
Cu1   O1    S    
C17   C19   A    
C31   C32   A    
C44   C46   A    
C1    O4    A    
C28   H32   S    
C45   H22   S    
C5    H23   S    
C36   H7    S    
C5    N2    A    
C20   C34   A    
Cu2   N2    S    
C1    O1    A    
C40   H10   S    
C39   H9    S    
C52   C54   A    
C2    C45   A    
C17   C24   A    
Cu1   O5    S    
C39   C40   A    
C4    H12   S    
C45   C52   A    
C25   C26   A    
C2    C53   A    
C42   H13   S    
C24   C34   A    
C31   C37   A    
C53   H26   S    
C51   C53   A    
C8    O7    A    
C29   C30   A    
C9    C20   A    
C47   C48   A    
C7    C13   S    
C26   H30   S    
C30   H3    S    
Cu1   O7    S    
C27   H31   S    
C9    C11   A    
C46   H15   S    
C3    H1    S    
C33   H5    S    
C48   C49   A    
C43   H14   S    
C21   C23   A    
C24   C44   S    
C14   C16   A    
C12   O3    A    
C42   C43   A    
C32   H4    S    
C37   H8    S    
C4    N1    A    
C44   C50   A    
C25   C30   A    
Cu2   O6    S    
C46   C47   A    
C28   C29   A    
C16   C22   A    
C6    H27   S    
C22   C23   A    
C48   H17   S    
C12   O2    A    
C4    C5    A    
C10   C13   A    
C10   C21   A    
C15   C31   S    
C6    N1    A    
C7    O5    A    
C51   C54   A    
C32   C33   A    
C13   C15   A    
C38   C43   A    
Cu1   N1    S    
C50   H19   S    
C8    C11   S    
C33   C35   A    
C35   H6    S    
C18   C20   A    
C14   C25   S    
C52   H25   S    
C47   H16   S    
C9    H28   S    
Cu2   O2    S    
C29   H2    S    
C16   C18   A    
C49   C50   A    
C27   C28   A    
C49   H18   S    
C12   C54   S    
