data_str_m2_o1_o13_f0_pcu.sym.96
_audit_creation_date              2012-10-26T21:20:14-0400
_audit_creation_method            fapswitch 2.2
_symmetry_space_group_name_H-M    P1
_symmetry_Int_Tables_number       1
_space_group_crystal_system       triclinic
_cell_length_a                    13.119788
_cell_length_b                    10.813974
_cell_length_c                    9.493367
_cell_angle_alpha                 90.21764
_cell_angle_beta                  95.659733
_cell_angle_gamma                 90.774497
_cell_volume                      1340.18467026

loop_
_atom_site_label
_atom_site_type_symbol
_atom_type_description
_atom_site_fract_x
_atom_site_fract_y
_atom_site_fract_z
_atom_type_partial_charge
C1    C     C_R   0.499976 0.262028 0.499808 0.552072
C2    C     C_R   0.699157 0.496165 0.525392 0.550745
C3    C     C_R   0.811438 0.495237 0.538502 -0.078437
C4    C     C_R   0.188565 0.504751 0.461496 -0.078464
C5    C     C_R   0.030497 0.454556 0.316658 0.246812
C6    C     C_R   0.969515 0.545392 0.683353 0.246848
C7    C     C_R   0.136739 0.467834 0.333271 -0.167206
C8    C     C_R   0.863271 0.532126 0.666737 -0.167260
C9    C     C_R   0.133768 0.539800 0.575541 0.057017
C10   C     C_R   0.866234 0.460199 0.424446 0.056983
C11   C     C_R   0.026142 0.521507 0.565709 -0.021273
C12   C     C_R   0.500033 0.737972 0.500194 0.552078
C13   C     C_R   0.973862 0.478470 0.434289 -0.021321
C14   C     C_R   0.524641 0.063902 0.379759 -0.133270
C15   C     C_R   0.475396 0.936098 0.620254 -0.133228
C16   C     C_R   0.524251 0.935981 0.379739 -0.143385
C17   C     C_R   0.475781 0.064019 0.620272 -0.143390
C18   C     C_2   0.811165 0.392897 0.302761 0.657847
C19   C     C_2   0.188821 0.607166 0.697186 0.657833
C20   C     C_3   0.018909 0.328701 0.116416 0.010029
C21   C     C_3   0.939736 0.282286 0.999590 -0.333912
C22   C     C_3   0.981030 0.671053 0.883776 0.010000
C23   C     C_R   0.499883 0.871759 0.500139 0.021923
C24   C     C_3   0.060252 0.717585 0.000467 -0.333879
C25   C     C_3   0.326212 0.245437 0.057528 -0.043965
C26   C     C_3   0.275419 0.157642 0.155044 -0.368494
C27   C     C_3   0.673889 0.754483 0.942505 -0.044022
C28   C     C_3   0.724705 0.842270 0.845005 -0.368550
C29   C     C_R   0.500143 0.128241 0.499869 0.021886
C30   C     C_R   0.435970 0.420628 0.066875 0.371821
C31   C     C_R   0.564029 0.579373 0.933123 0.371776
C32   C     C_R   0.436532 0.422128 0.915902 -0.029282
C33   C     C_R   0.563468 0.577871 0.084098 -0.029346
C34   C     C_R   0.300845 0.503836 0.474607 0.550738
Cu1   Cu    Cu3+1 0.500000 0.500020 0.640660 1.023125
Cu2   Cu    Cu3+1 0.500000 0.499980 0.359340 1.023134
H1    H     H_    0.820267 0.548880 0.756210 0.159696
H2    H     H_    0.261868 0.598231 0.893963 0.320467
H3    H     H_    0.035260 0.251677 0.192763 0.121369
H4    H     H_    0.089156 0.353989 0.066004 0.155703
H5    H     H_    0.917727 0.358216 0.924767 0.195517
H6    H     H_    0.972195 0.205749 0.940592 0.091335
H7    H     H_    0.870479 0.247186 0.045628 0.169464
H8    H     H_    0.910894 0.645542 0.934329 0.155942
H9    H     H_    0.964476 0.748095 0.807529 0.121257
H10   H     H_    0.129390 0.752861 0.954275 0.169481
H11   H     H_    0.027746 0.794027 0.059572 0.091355
H12   H     H_    0.179741 0.451071 0.243800 0.159810
H13   H     H_    0.082465 0.641668 0.075219 0.195496
H14   H     H_    0.385259 0.192695 0.006701 0.108804
H15   H     H_    0.265908 0.278997 0.976614 0.143144
H16   H     H_    0.219778 0.208210 0.213694 0.142984
H17   H     H_    0.234569 0.082153 0.091986 0.100463
H18   H     H_    0.333962 0.116547 0.232554 0.167021
H19   H     H_    0.734194 0.720795 0.023342 0.143184
H20   H     H_    0.614917 0.807272 0.993427 0.108840
H21   H     H_    0.666144 0.883621 0.767722 0.166927
H22   H     H_    0.765784 0.917572 0.908111 0.100440
H23   H     H_    0.544238 0.112270 0.286166 0.148540
H24   H     H_    0.780145 0.791618 0.786090 0.143167
H25   H     H_    0.455799 0.887730 0.713848 0.148537
H26   H     H_    0.543797 0.887571 0.286158 0.120112
H27   H     H_    0.456231 0.112428 0.713851 0.120107
H28   H     H_    0.386166 0.362802 0.848008 0.128921
H29   H     H_    0.613829 0.637203 0.151992 0.128910
H30   H     H_    0.738172 0.401935 0.105954 0.320459
N1    N     N_R   0.500030 0.500030 0.852080 -0.241336
N2    N     N_R   0.499970 0.499970 0.147920 -0.241339
O1    O     O_R   0.499990 0.319660 0.618740 -0.531046
O2    O     O_R   0.776064 0.457435 0.180509 -0.668722
O3    O     O_2   0.205152 0.718298 0.688488 -0.548635
O4    O     O_R   0.223995 0.542683 0.819441 -0.668591
O5    O     O_3   0.980710 0.433823 0.182084 -0.528272
O6    O     O_3   0.019325 0.566079 0.817929 -0.528251
O7    O     O_3   0.370506 0.345913 0.138091 -0.518969
O8    O     O_3   0.629468 0.654110 0.861890 -0.518969
O9    O     O_R   0.500010 0.680340 0.381260 -0.531049
O10   O     O_R   0.499990 0.319630 0.381170 -0.456715
O11   O     O_R   0.500010 0.680370 0.618830 -0.456688
O12   O     O_R   0.349000 0.499990 0.599490 -0.486476
O13   O     O_R   0.651000 0.500010 0.400510 -0.486485
O14   O     O_R   0.348990 0.499960 0.361920 -0.465626
O15   O     O_R   0.651010 0.500040 0.638080 -0.465640
O16   O     O_2   0.794750 0.281781 0.311426 -0.548628

loop_
_geom_bond_atom_site_label_1
_geom_bond_atom_site_label_2
_ccdc_geom_bond_type
C18   O2    S    
C17   C29   A    
C19   O3    D    
Cu1   Cu2   S    
C2    O15   A    
C33   H29   S    
C28   H21   S    
C31   N1    A    
C14   H23   S    
C12   C23   S    
Cu2   O9    S    
C20   H4    S    
C27   H19   S    
C12   O11   A    
Cu1   O12   S    
C25   H14   S    
C34   O12   A    
C21   H7    S    
C9    C19   S    
C22   H8    S    
Cu2   O14   S    
C18   O16   D    
C31   C33   A    
C5    C13   A    
C15   C23   A    
C1    O10   A    
C19   O4    S    
C16   H26   S    
C4    C7    A    
C26   H18   S    
C6    O6    S    
C4    C34   S    
C28   H24   S    
H2    O4    S    
C32   H28   S    
C3    C8    A    
C6    C11   A    
C5    C7    A    
C20   H3    S    
Cu1   O15   S    
C27   H20   S    
C6    C8    A    
C25   C26   S    
C1    O1    A    
C25   O7    S    
C25   H15   S    
C26   H16   S    
Cu1   N1    S    
Cu2   O13   S    
C12   O9    A    
C1    C29   S    
C15   H25   S    
C9    C11   A    
C32   N1    A    
C21   H5    S    
C16   C23   A    
C14   C16   A    
C8    H1    S    
C22   O6    S    
C14   C29   A    
C27   O8    S    
C26   H17   S    
C24   H13   S    
C15   C17   A    
C24   H11   S    
C10   C13   A    
Cu2   N2    S    
C28   H22   S    
C24   H10   S    
C7    H12   S    
C2    C3    S    
C3    C10   A    
Cu2   O10   S    
C17   H27   S    
C30   C32   A    
C30   O7    S    
C11   C13   A    
C31   O8    S    
H30   O2    S    
C10   C18   S    
Cu1   O11   S    
C20   O5    S    
C22   C24   S    
C5    O5    S    
C21   H6    S    
C22   H9    S    
C20   C21   S    
Cu1   O1    S    
C27   C28   S    
C2    O13   A    
C34   O14   A    
C4    C9    A    
C30   N2    A    
C33   N2    A    
