data_str_m2_o5_o22_f0_pcu.sym.28
_audit_creation_date              2012-10-26T20:33:41-0400
_audit_creation_method            fapswitch 2.2
_symmetry_space_group_name_H-M    P1
_symmetry_Int_Tables_number       1
_space_group_crystal_system       triclinic
_cell_length_a                    10.891265
_cell_length_b                    9.068038
_cell_length_c                    7.805213
_cell_angle_alpha                 90.483975
_cell_angle_beta                  89.261464
_cell_angle_gamma                 90.412341
_cell_volume                      770.750704748

loop_
_atom_site_label
_atom_site_type_symbol
_atom_type_description
_atom_site_fract_x
_atom_site_fract_y
_atom_site_fract_z
_atom_type_partial_charge
C1    C     C_R   0.500320 0.220168 0.499502 0.539722
C2    C     C_1   0.500586 0.934639 0.499860 0.059653
C3    C     C_3   0.072423 0.656988 0.636593 0.372165
C4    C     C_3   0.926670 0.682008 0.590685 0.371705
C5    C     C_3   0.121214 0.521578 0.515455 -0.063598
C6    C     C_3   0.877640 0.528660 0.504929 -0.051329
C7    C     C_R   0.259289 0.507940 0.503442 0.577254
C8    C     C_R   0.739997 0.514130 0.500072 0.600560
C9    C     C_R   0.499784 0.779842 0.500131 0.660320
C10   C     C_1   0.500672 0.065486 0.498999 0.002187
C11   C     C_3   0.066016 0.375215 0.584162 -0.260635
C12   C     C_3   0.073218 0.531743 0.328891 -0.240804
C13   C     C_3   0.924721 0.388557 0.598261 -0.261579
C14   C     C_3   0.933017 0.514945 0.321450 -0.238887
Cu1   Cu    Cu3+1 0.500000 0.500010 0.669080 1.183172
Cu2   Cu    Cu3+1 0.500000 0.500010 0.330920 1.118510
H1    H     H_    0.106533 0.342133 0.706958 0.186714
H2    H     H_    0.306021 0.924386 0.767931 0.354917
H3    H     H_    0.741700 0.656206 0.001728 0.363992
H4    H     H_    0.754561 0.883917 0.254896 0.373935
H5    H     H_    0.105582 0.634100 0.267955 0.268290
H6    H     H_    0.890727 0.385164 0.731578 0.238926
H7    H     H_    0.895196 0.595303 0.230897 0.265828
H8    H     H_    0.089129 0.283105 0.494220 0.174775
H9    H     H_    0.113080 0.440818 0.250103 0.165848
H10   H     H_    0.883996 0.287888 0.538288 0.169818
H11   H     H_    0.909610 0.404817 0.265806 0.168535
H12   H     H_    0.054880 0.398361 0.975428 0.338289
N1    N     N_1   0.500000 0.499970 0.076820 -0.064982
N2    N     N_1   0.500000 0.499970 0.923180 -0.039214
O1    O     O_R   0.500000 0.288400 0.642760 -0.514559
O2    O     O_2   0.077882 0.751933 0.975542 -0.134054
O3    O     O_3   0.002604 0.483689 0.948495 -0.557465
O4    O     O_2   0.217632 0.834411 0.426833 -0.291412
O5    O     O_2   0.097628 0.960671 0.650549 -0.218474
O6    O     O_3   0.286982 0.819851 0.740799 -0.466811
O7    O     O_2   0.892666 0.871694 0.866692 -0.166869
O8    O     O_2   0.713625 0.800528 0.714360 -0.268400
O9    O     O_3   0.800046 0.610521 0.919018 -0.485055
O10   O     O_2   0.881320 0.979799 0.527038 -0.209721
O11   O     O_2   0.994563 0.852400 0.301656 -0.222380
O12   O     O_R   0.500000 0.288400 0.357240 -0.507844
O13   O     O_3   0.763795 0.800765 0.335101 -0.561599
O14   O     O_R   0.317700 0.499990 0.642790 -0.442871
O15   O     O_R   0.317700 0.499990 0.357210 -0.501163
O16   O     O_R   0.682300 0.499990 0.642790 -0.465402
O17   O     O_R   0.682300 0.499990 0.357210 -0.506356
O18   O     O_R   0.500000 0.711620 0.642810 -0.434990
O19   O     O_R   0.500000 0.711620 0.357190 -0.484575
O20   O     O_2   0.223901 0.567497 0.910162 -0.261314
S1    S     S_3+6 0.096139 0.615050 0.869723 0.073256
S2    S     S_3+6 0.167646 0.823257 0.606551 0.091531
S3    S     S_3+6 0.833119 0.743388 0.776908 0.128946
S4    S     S_3+6 0.896587 0.833909 0.436371 0.073497

loop_
_geom_bond_atom_site_label_1
_geom_bond_atom_site_label_2
_ccdc_geom_bond_type
Cu2   O15   S    
C14   H7    S    
C3    S2    S    
O2    S1    D    
Cu1   O1    S    
N1    N2    T    
C14   H11   S    
C6    C14   S    
C1    O12   A    
O13   S4    S    
O4    S2    D    
O6    S2    S    
C12   H9    S    
O7    S3    D    
O20   S1    D    
C8    O17   A    
C7    O14   A    
C6    C13   S    
C11   C13   S    
O9    S3    S    
O8    S3    D    
H3    O9    S    
Cu1   O18   S    
C9    O18   A    
C7    O15   A    
Cu2   O17   S    
C13   H6    S    
C12   C14   S    
Cu1   O14   S    
C5    C11   S    
O10   S4    D    
C4    S3    S    
C8    O16   A    
O11   S4    D    
O3    S1    S    
H12   O3    S    
C13   H10   S    
C3    C4    S    
C2    C10   T    
Cu2   O12   S    
C11   H8    S    
C1    O1    A    
H4    O13   S    
C9    O19   A    
Cu2   O19   S    
Cu1   N2    S    
C4    C6    S    
O5    S2    D    
C5    C7    S    
C3    S1    S    
C11   H1    S    
C6    C8    S    
Cu1   O16   S    
C4    S4    S    
Cu2   N1    S    
C2    C9    S    
H2    O6    S    
C12   H5    S    
C1    C10   S    
Cu1   Cu2   S    
C3    C5    S    
C5    C12   S    
