data_str_m2_o1_o14_f0_pcu.sym.181
_audit_creation_date              2012-12-10T17:56:44-0500
_audit_creation_method            fapswitch 2.2
_symmetry_space_group_name_H-M    P1
_symmetry_Int_Tables_number       1
_space_group_crystal_system       triclinic
_cell_length_a                    10.841429
_cell_length_b                    9.585188
_cell_length_c                    10.829405
_cell_angle_alpha                 90.22456
_cell_angle_beta                  90.901771
_cell_angle_gamma                 90.23263
_cell_volume                      1125.20315994

loop_
_atom_site_label
_atom_site_type_symbol
_atom_type_description
_atom_site_fract_x
_atom_site_fract_y
_atom_site_fract_z
_atom_type_partial_charge
C1    C     C_R   0.262338 0.499445 0.495015 0.974273
C2    C     C_R   0.737332 0.499575 0.494271 0.814228
C3    C     C_R   0.937227 0.604669 0.544125 -0.153544
C4    C     C_R   0.064237 0.606345 0.542075 -0.053604
C5    C     C_R   0.417412 0.074570 0.429718 0.005224
C6    C     C_R   0.582697 0.076886 0.570289 0.018659
C7    C     C_R   0.416609 0.926766 0.429146 0.054695
C8    C     C_R   0.584102 0.928565 0.571517 0.084620
C9    C     C_R   0.496782 0.499825 0.262572 0.984334
C10   C     C_R   0.497959 0.500293 0.737309 1.006950
C11   C     C_R   0.266965 0.565047 0.124169 0.556103
C12   C     C_R   0.269072 0.570468 0.867454 0.621354
C13   C     C_R   0.160383 0.598468 0.057754 -0.200622
C14   C     C_R   0.161499 0.601513 0.930061 -0.242496
C15   C     C_R   0.379473 0.536029 0.932306 -0.143320
C16   C     C_R   0.378640 0.534202 0.063372 -0.165208
C17   C     C_R   0.488941 0.499534 0.128587 -0.285206
C18   C     C_R   0.489990 0.500980 0.870885 -0.288754
C19   C     C_R   0.595839 0.464990 0.065264 0.534340
C20   C     C_R   0.596223 0.464765 0.937627 0.512606
C21   C     C_R   0.063435 0.392319 0.418695 -0.029254
C22   C     C_R   0.933234 0.393204 0.417107 -0.060598
C23   C     C_R   0.871062 0.497700 0.485171 -0.097480
C24   C     C_R   0.128113 0.498714 0.484225 -0.068654
Cu1   Cu    Cu3+1 0.500000 0.640660 0.500000 1.007617
Cu2   Cu    Cu3+1 0.500000 0.359340 0.500000 1.001294
H1    H     H_    0.076047 0.621649 0.105887 0.218998
H2    H     H_    0.078061 0.627247 0.878924 0.203246
H3    H     H_    0.890573 0.686398 0.594154 0.178451
H4    H     H_    0.112779 0.690082 0.589850 0.209253
H5    H     H_    0.353121 0.130879 0.371621 0.144964
H6    H     H_    0.647521 0.136362 0.626624 0.192721
N1    N     N_R   0.500000 0.852070 0.500000 -0.244471
N2    N     N_R   0.500000 0.147940 0.500000 -0.214626
O1    O     O_R   0.319640 0.618740 0.499990 -0.524320
O2    O     O_R   0.680360 0.618740 0.500010 -0.613533
O3    O     O_R   0.319620 0.381170 0.499990 -0.613507
O4    O     O_R   0.680380 0.381170 0.500010 -0.610778
O5    O     O_R   0.500000 0.618810 0.319650 -0.597474
O6    O     O_R   0.500000 0.618810 0.680350 -0.595107
O7    O     O_R   0.499970 0.381240 0.319640 -0.588543
O8    O     O_R   0.500030 0.381240 0.680360 -0.559054
F1    F     F_    0.701461 0.434262 0.128005 -0.615158
F2    F     F_    0.701821 0.431700 0.878350 -0.622448
F3    F     F_    0.258214 0.562224 0.247896 -0.739820
F4    F     F_    0.262659 0.573540 0.743329 -0.712786
C25   C     C_2   0.131617 0.282676 0.350318 0.457120
H7    H     H_    0.213725 0.309448 0.299614 0.094761
O9    O     O_2   0.098269 0.160901 0.352585 -0.492837
C26   C     C_2   0.863922 0.292362 0.336858 0.553851
H8    H     H_    0.789479 0.229547 0.372512 0.084318
O10   O     O_2   0.891447 0.277309 0.228725 -0.436013
C27   C     C_2   0.325900 0.857673 0.347547 0.473042
H9    H     H_    0.356042 0.797609 0.269278 0.110950
O11   O     O_2   0.215707 0.874000 0.363551 -0.484619
C28   C     C_2   0.678550 0.862234 0.652670 0.363252
H10   H     H_    0.673069 0.755225 0.680177 0.138774
O12   O     O_2   0.766655 0.929411 0.692500 -0.546158

loop_
_geom_bond_atom_site_label_1
_geom_bond_atom_site_label_2
_ccdc_geom_bond_type
C15   C18   A    
C6    H6    S    
Cu2   O3    S    
C13   C14   A    
C10   O8    A    
C11   C13   A    
C11   C16   A    
C2    O4    A    
C26   O10   D    
C19   C20   A    
C12   C15   A    
C1    O3    A    
C22   C26   S    
C14   H2    S    
C5    N2    A    
C8    C28   S    
C26   H8    S    
C12   C14   A    
C25   O9    D    
C21   C22   A    
Cu1   O5    S    
C7    N1    A    
C3    H3    S    
Cu1   O1    S    
C4    C24   A    
C9    C17   S    
C17   C19   A    
C19   F1    S    
C18   C20   A    
C8    N1    A    
C27   O11   D    
Cu1   O6    S    
C10   C18   S    
C4    H4    S    
C11   F3    S    
Cu1   N1    S    
C7    C27   S    
Cu1   O2    S    
C15   C16   A    
C6    N2    A    
C9    O5    A    
C28   H10   S    
Cu2   O8    S    
C1    C24   S    
C12   F4    S    
C21   C24   A    
C2    O2    A    
C2    C23   S    
C5    C7    A    
C1    O1    A    
C21   C25   S    
C22   C23   A    
C13   H1    S    
C10   O6    A    
C6    C8    A    
C3    C23   A    
C20   F2    S    
Cu1   Cu2   S    
C27   H9    S    
C9    O7    A    
Cu2   N2    S    
Cu2   O4    S    
C3    C4    A    
C25   H7    S    
Cu2   O7    S    
C28   O12   D    
C16   C17   A    
C5    H5    S    
