data_str_m2_o4_o14_f0_pcu.sym.130
_audit_creation_date              2012-12-10T18:59:14-0500
_audit_creation_method            fapswitch 2.2
_symmetry_space_group_name_H-M    P1
_symmetry_Int_Tables_number       1
_space_group_crystal_system       triclinic
_cell_length_a                    10.862436
_cell_length_b                    10.833672
_cell_length_c                    9.543346
_cell_angle_alpha                 93.727155
_cell_angle_beta                  90.431256
_cell_angle_gamma                 91.192057
_cell_volume                      1120.39933298

loop_
_atom_site_label
_atom_site_type_symbol
_atom_type_description
_atom_site_fract_x
_atom_site_fract_y
_atom_site_fract_z
_atom_type_partial_charge
C1    C     C_R   0.501670 0.262587 0.495384 0.827937
C2    C     C_R   0.061791 0.506760 0.632706 0.047773
C3    C     C_R   0.127256 0.506115 0.504226 -0.110101
C4    C     C_R   0.062679 0.487106 0.376905 -0.224610
C5    C     C_R   0.935515 0.476957 0.375510 -0.209434
C6    C     C_R   0.871187 0.471037 0.501480 -0.110252
C7    C     C_R   0.596619 0.071015 0.559450 -0.103352
C8    C     C_R   0.508180 0.129583 0.483096 -0.111959
C9    C     C_R   0.421800 0.056961 0.401255 0.425847
C10   C     C_R   0.417518 0.928128 0.412120 -0.280201
C11   C     C_R   0.491586 0.872964 0.511317 -0.135485
C12   C     C_R   0.262056 0.505587 0.500921 0.794562
C13   C     C_R   0.582680 0.946947 0.581835 -0.079301
C14   C     C_3   0.620602 0.975081 0.735016 0.843925
C15   C     C_3   0.652155 0.106454 0.699352 -0.442061
C16   C     C_R   0.555759 0.594281 0.081522 0.283445
C17   C     C_R   0.433523 0.414113 0.067628 -0.040505
C18   C     C_R   0.433189 0.414339 0.918639 -0.042610
C19   C     C_R   0.556055 0.593747 0.934447 0.201778
C20   C     C_3   0.688218 0.630599 0.934415 -0.558160
C21   C     C_3   0.687973 0.631992 0.092829 -0.497616
C22   C     C_R   0.497823 0.738356 0.504261 0.798013
C23   C     C_R   0.737090 0.487350 0.499960 0.785477
C24   C     C_R   0.113299 0.546265 0.765376 -0.269226
C25   C     C_R   0.053585 0.518990 0.889746 0.484974
C26   C     C_R   0.947932 0.443530 0.880975 -0.231238
C27   C     C_R   0.888463 0.419199 0.751244 -0.273264
C28   C     C_R   0.938393 0.465267 0.628549 0.110254
Cu1   Cu    Cu3+1 0.499990 0.499980 0.640670 0.927508
Cu2   Cu    Cu3+1 0.500010 0.500020 0.359330 0.954294
H1    H     H_    0.110211 0.483278 0.277623 0.221172
H2    H     H_    0.381990 0.343124 0.117975 0.166080
H3    H     H_    0.380769 0.343730 0.857424 0.153455
H4    H     H_    0.743559 0.557556 0.884703 0.240297
H5    H     H_    0.704538 0.722281 0.895003 0.243845
H6    H     H_    0.701645 0.726029 0.145121 0.197718
H7    H     H_    0.196646 0.602253 0.774958 0.170493
H8    H     H_    0.906034 0.412771 0.975604 0.152971
H9    H     H_    0.802576 0.366705 0.748525 0.176428
H10   H     H_    0.353834 0.871973 0.345957 0.155824
N1    N     N_R   0.500790 0.500930 0.147930 -0.196840
N2    N     N_R   0.500790 0.500890 0.852020 -0.191431
O1    O     O_R   0.500000 0.319640 0.618810 -0.603504
O2    O     O_R   0.500010 0.319680 0.381230 -0.550264
O3    O     O_R   0.319640 0.499980 0.618820 -0.589677
O4    O     O_R   0.319650 0.500020 0.381230 -0.581082
O5    O     O_R   0.499990 0.680320 0.618770 -0.594461
O6    O     O_R   0.500000 0.680360 0.381190 -0.578427
O7    O     O_R   0.680350 0.499980 0.618770 -0.586176
O8    O     O_R   0.680360 0.500020 0.381180 -0.586795
O9    O     O_3   0.725723 0.915170 0.788633 -0.630507
C29   C     C_3   0.804558 0.866087 0.681794 0.015408
H11   H     H_    0.829137 0.936262 0.606050 0.147860
H12   H     H_    0.759739 0.784183 0.624550 0.158541
C30   C     C_3   0.923939 0.824812 0.746618 -0.818974
H13   H     H_    0.905852 0.744598 0.810191 0.237975
H14   H     H_    0.989290 0.796139 0.662264 0.207274
H15   H     H_    0.966626 0.901733 0.814034 0.251853
H16   H     H_    0.601807 0.177946 0.763330 0.216765
H17   H     H_    0.752380 0.127469 0.691774 0.155500
H18   H     H_    0.746516 0.559459 0.133204 0.214598
O10   O     O_3   0.101531 0.559378 0.019924 -0.600028
C31   C     C_3   0.086142 0.688744 0.039731 0.048402
H19   H     H_    0.986701 0.711640 0.036445 0.160110
H20   H     H_    0.136099 0.738822 0.958555 0.142778
C32   C     C_3   0.137680 0.736199 0.182405 -0.823973
H21   H     H_    0.229465 0.696552 0.200601 0.265759
H22   H     H_    0.147124 0.838676 0.186815 0.209290
H23   H     H_    0.074114 0.711146 0.266800 0.243518
H24   H     H_    0.888030 0.472846 0.275391 0.165339
O11   O     O_3   0.343745 0.110881 0.309052 -0.590665
C33   C     C_3   0.226944 0.123812 0.371432 0.050846
H25   H     H_    0.232753 0.189118 0.466538 0.141678
H26   H     H_    0.188248 0.033014 0.400712 0.137749
C34   C     C_3   0.138979 0.175919 0.266714 -0.770124
H27   H     H_    0.126973 0.109780 0.173442 0.240211
H28   H     H_    0.047954 0.191680 0.316222 0.207901
H29   H     H_    0.176304 0.265071 0.232289 0.252965
O12   O     O_3   0.518011 0.984081 0.826931 -0.598727
C35   C     C_3   0.504130 0.882458 0.909108 0.085552
H30   H     H_    0.581878 0.879723 0.985114 0.183512
H31   H     H_    0.495841 0.796980 0.840654 0.178173
C36   C     C_3   0.386154 0.895327 0.992736 -0.810523
H32   H     H_    0.305711 0.897178 0.920453 0.240163
H33   H     H_    0.375307 0.815678 0.059334 0.204955
H34   H     H_    0.389851 0.982156 0.061209 0.292809

loop_
_geom_bond_atom_site_label_1
_geom_bond_atom_site_label_2
_ccdc_geom_bond_type
C32   H22   S    
C30   H13   S    
C31   H20   S    
C16   C21   S    
Cu1   N2    S    
C1    C8    S    
C15   H17   S    
C22   O6    A    
C19   C20   S    
C7    C8    A    
C21   H6    S    
Cu1   O7    S    
C26   C27   A    
C5    H24   S    
Cu1   O5    S    
Cu2   O6    S    
C33   C34   S    
C5    C6    A    
C35   H30   S    
C23   O7    A    
C32   H23   S    
C10   H10   S    
C3    C12   S    
C20   H5    S    
C1    O1    A    
C6    C28   A    
C36   H32   S    
C27   H9    S    
C8    C9    A    
Cu2   N1    S    
Cu1   Cu2   S    
C9    C10   A    
C21   H18   S    
C19   N2    A    
C33   H25   S    
C20   H4    S    
C7    C15   S    
C22   O5    A    
Cu2   O8    S    
C31   C32   S    
C13   C14   S    
Cu1   O1    S    
Cu2   O2    S    
C35   C36   S    
C18   H3    S    
C29   H12   S    
C24   H7    S    
O9    C29   S    
C24   C25   A    
C35   H31   S    
C26   H8    S    
C23   O8    A    
C25   C26   A    
C31   H19   S    
Cu1   O3    S    
C12   O4    A    
C34   H27   S    
O10   C31   S    
C1    O2    A    
C14   O9    S    
C7    C13   A    
C17   C18   A    
C14   O12   S    
C34   H28   S    
C33   H26   S    
C36   H33   S    
C30   H14   S    
C2    C24   A    
C3    C4    A    
C29   H11   S    
C15   H16   S    
Cu2   O4    S    
C9    O11   S    
C12   O3    A    
C29   C30   S    
C11   C22   S    
C18   N2    A    
C2    C3    A    
O11   C33   S    
C11   C13   A    
C16   C19   A    
C6    C23   S    
C32   H21   S    
C25   O10   S    
C34   H29   S    
C17   N1    A    
C4    H1    S    
C10   C11   A    
O12   C35   S    
C4    C5    A    
C36   H34   S    
C20   C21   S    
C30   H15   S    
C27   C28   A    
C17   H2    S    
C14   C15   S    
C2    C28   A    
C16   N1    A    
