data_str_m2_o1_o9_f0_pcu.sym.104
_audit_creation_date              2012-12-10T18:05:40-0500
_audit_creation_method            fapswitch 2.2
_symmetry_space_group_name_H-M    P1
_symmetry_Int_Tables_number       1
_space_group_crystal_system       triclinic
_cell_length_a                    10.839321
_cell_length_b                    10.818975
_cell_length_c                    9.506429
_cell_angle_alpha                 90.050413
_cell_angle_beta                  90.520012
_cell_angle_gamma                 90.297616
_cell_volume                      1114.76075557

loop_
_atom_site_label
_atom_site_type_symbol
_atom_type_description
_atom_site_fract_x
_atom_site_fract_y
_atom_site_fract_z
_atom_type_partial_charge
C1    C     C_R   0.499895 0.262050 0.499921 0.803440
C2    C     C_R   0.500899 0.737949 0.500065 0.823556
C3    C     C_R   0.871703 0.495844 0.502369 -0.071341
C4    C     C_R   0.128344 0.502896 0.497458 -0.056919
C5    C     C_R   0.939875 0.449453 0.618061 0.072284
C6    C     C_R   0.060177 0.548854 0.381545 0.070301
C7    C     C_R   0.491711 0.063689 0.372358 -0.170878
C8    C     C_R   0.511363 0.936320 0.627401 -0.172724
C9    C     C_R   0.492774 0.935924 0.372362 -0.142745
C10   C     C_R   0.509916 0.064082 0.627445 -0.154446
C11   C     C_R   0.501991 0.871784 0.499954 0.012895
C12   C     C_R   0.500270 0.128222 0.499907 0.005527
C13   C     C_R   0.435254 0.412586 0.073662 0.051630
C14   C     C_R   0.564290 0.587747 0.926336 0.042417
C15   C     C_R   0.435362 0.412559 0.924780 -0.018050
C16   C     C_R   0.564199 0.587757 0.075218 -0.030541
C17   C     C_R   0.262206 0.502008 0.499113 0.833356
C18   C     C_R   0.737800 0.497418 0.500868 0.817791
C19   C     C_R   0.226085 0.770751 0.137311 -0.281358
C20   C     C_R   0.770795 0.226974 0.858228 -0.223189
C21   C     C_R   0.170964 0.722709 0.258380 0.250170
C22   C     C_R   0.830675 0.274023 0.739864 0.224892
C23   C     C_R   0.118123 0.603517 0.255447 0.078961
C24   C     C_R   0.881539 0.394117 0.743480 0.074621
C25   C     C_R   0.120166 0.534670 0.130524 -0.305638
C26   C     C_R   0.875248 0.463729 0.867767 -0.274900
C27   C     C_R   0.174634 0.583275 0.010024 -0.196454
C28   C     C_R   0.816964 0.415468 0.986181 -0.238761
C29   C     C_R   0.226234 0.702024 0.010757 0.533507
C30   C     C_R   0.764613 0.296488 0.982112 0.511234
C31   C     C_R   0.932481 0.544221 0.385373 -0.237605
C32   C     C_R   0.067583 0.454006 0.614236 -0.204820
Cu1   Cu    Cu3+1 0.500000 0.500020 0.640660 0.985122
Cu2   Cu    Cu3+1 0.500000 0.499980 0.359340 0.971280
H1    H     H_    0.383115 0.342841 0.868064 0.107353
H2    H     H_    0.616322 0.657565 0.131931 0.113884
H3    H     H_    0.268809 0.861193 0.142735 0.154244
H4    H     H_    0.729966 0.135468 0.854678 0.164955
H5    H     H_    0.080402 0.442627 0.126876 0.166138
H6    H     H_    0.913607 0.556328 0.872030 0.172350
H7    H     H_    0.176444 0.528338 0.914980 0.159432
H8    H     H_    0.810381 0.471489 0.080056 0.152053
H9    H     H_    0.880328 0.581496 0.297382 0.150697
H10   H     H_    0.119743 0.416121 0.701841 0.143273
H11   H     H_    0.484026 0.111643 0.272689 0.162475
H12   H     H_    0.519375 0.888350 0.727018 0.156106
H13   H     H_    0.485595 0.887647 0.272721 0.145405
H14   H     H_    0.516729 0.112347 0.727107 0.146043
H15   H     H_    0.382936 0.342905 0.129127 0.111712
H16   H     H_    0.616474 0.657533 0.870881 0.114077
N1    N     N_R   0.500030 0.500030 0.852070 -0.153052
N2    N     N_R   0.499970 0.499970 0.147930 -0.153900
O1    O     O_R   0.499990 0.319660 0.618740 -0.595011
O2    O     O_R   0.500010 0.680340 0.381260 -0.595425
O3    O     O_R   0.499990 0.319630 0.381170 -0.578994
O4    O     O_R   0.500010 0.680370 0.618830 -0.570400
O5    O     O_R   0.319650 0.500020 0.618780 -0.570567
O6    O     O_R   0.680350 0.499980 0.381220 -0.588867
O7    O     O_R   0.319640 0.500000 0.381210 -0.583246
O8    O     O_R   0.680360 0.500000 0.618790 -0.577376
O9    O     O_3   0.282478 0.743039 0.888475 -0.569960
C33   C     C_3   0.254778 0.868072 0.860786 -0.286632
H17   H     H_    0.318735 0.929929 0.920084 0.139806
H18   H     H_    0.156820 0.891015 0.883492 0.167600
H19   H     H_    0.269090 0.885719 0.747214 0.231060
O10   O     O_3   0.699192 0.250242 0.094580 -0.602014
C34   C     C_3   0.782231 0.222623 0.204846 -0.237712
H20   H     H_    0.822537 0.308092 0.251608 0.178182
H21   H     H_    0.856669 0.159422 0.169568 0.160193
H22   H     H_    0.730555 0.174314 0.288610 0.223325
Br1   Br    Br    0.167544 0.823306 0.424608 -0.549187
Br2   Br    Br    0.843763 0.170454 0.577283 -0.590638

loop_
_geom_bond_atom_site_label_1
_geom_bond_atom_site_label_2
_ccdc_geom_bond_type
C17   O5    A    
Cu1   O5    S    
C9    H13   S    
C33   H17   S    
C15   N1    A    
Cu1   N1    S    
C13   N2    A    
C20   H4    S    
C19   H3    S    
C27   H7    S    
Cu2   N2    S    
C14   N1    A    
C33   H19   S    
C13   C15   A    
C17   O7    A    
C5    C32   A    
C34   H22   S    
Cu1   O4    S    
C5    C24   S    
O10   C34   S    
C1    O3    A    
C4    C32   A    
Cu2   O3    S    
C20   C30   A    
C25   H5    S    
C3    C31   A    
C9    C11   A    
C24   C26   A    
C26   H6    S    
O9    C33   S    
C1    C12   S    
C31   H9    S    
C2    O4    A    
C8    C11   A    
C13   H15   S    
C2    C11   S    
C7    H11   S    
C22   C24   A    
C22   Br2   S    
C3    C18   S    
C19   C21   A    
C21   Br1   S    
Cu2   O2    S    
Cu1   O8    S    
C29   O9    S    
C23   C25   A    
C21   C23   A    
C10   H14   S    
Cu2   O7    S    
C10   C12   A    
C14   C16   A    
C7    C12   A    
C25   C27   A    
C14   H16   S    
C34   H20   S    
C19   C29   A    
C7    C9    A    
Cu1   Cu2   S    
Cu1   O1    S    
C32   H10   S    
C18   O8    A    
C4    C6    A    
C2    O2    A    
C15   H1    S    
C27   C29   A    
Cu2   O6    S    
C6    C31   A    
C1    O1    A    
C33   H18   S    
C28   H8    S    
C8    H12   S    
C34   H21   S    
C6    C23   S    
C26   C28   A    
C18   O6    A    
C8    C10   A    
C16   H2    S    
C16   N2    A    
C30   O10   S    
C20   C22   A    
C28   C30   A    
C3    C5    A    
C4    C17   S    
