data_str_m2_o1_o14_f0_pcu.sym.175
_audit_creation_date              2012-12-10T17:56:44-0500
_audit_creation_method            fapswitch 2.2
_symmetry_space_group_name_H-M    P1
_symmetry_Int_Tables_number       1
_space_group_crystal_system       triclinic
_cell_length_a                    10.831862
_cell_length_b                    9.517971
_cell_length_c                    10.793869
_cell_angle_alpha                 91.022003
_cell_angle_beta                  90.505685
_cell_angle_gamma                 89.874685
_cell_volume                      1112.59661704

loop_
_atom_site_label
_atom_site_type_symbol
_atom_type_description
_atom_site_fract_x
_atom_site_fract_y
_atom_site_fract_z
_atom_type_partial_charge
C1    C     C_R   0.262052 0.500033 0.499823 0.748518
C2    C     C_R   0.737924 0.499820 0.498904 0.922557
C3    C     C_R   0.935890 0.627539 0.501587 -0.125571
C4    C     C_R   0.063598 0.627658 0.501871 -0.196263
C5    C     C_R   0.421644 0.073108 0.424091 0.008613
C6    C     C_R   0.578487 0.075743 0.575775 -0.001784
C7    C     C_R   0.421594 0.924256 0.424132 -0.009811
C8    C     C_R   0.578443 0.926896 0.575821 -0.014188
C9    C     C_R   0.505606 0.498269 0.262614 0.888355
C10   C     C_R   0.501481 0.501466 0.737412 0.915707
C11   C     C_R   0.286390 0.576866 0.130476 -0.140141
C12   C     C_R   0.284860 0.581141 0.872611 -0.134604
C13   C     C_R   0.180486 0.618733 0.066689 -0.092189
C14   C     C_R   0.180013 0.621534 0.938007 -0.126629
C15   C     C_R   0.394163 0.540565 0.935630 0.037079
C16   C     C_R   0.395245 0.538509 0.065965 0.047199
C17   C     C_R   0.503310 0.493610 0.128486 -0.266300
C18   C     C_R   0.503078 0.505798 0.871436 -0.273624
C19   C     C_R   0.610070 0.450054 0.062758 0.259693
C20   C     C_R   0.614043 0.474747 0.934657 0.315644
C21   C     C_R   0.064073 0.372284 0.496619 -0.168082
C22   C     C_R   0.936360 0.372171 0.496314 -0.077615
C23   C     C_R   0.871776 0.499796 0.498869 0.035242
C24   C     C_R   0.128203 0.500035 0.499461 -0.027481
Cu1   Cu    Cu3+1 0.500000 0.640660 0.500000 0.983232
Cu2   Cu    Cu3+1 0.500000 0.359340 0.500000 1.014940
H1    H     H_    0.281359 0.574061 0.230380 0.125663
H2    H     H_    0.279597 0.584069 0.772602 0.127443
H3    H     H_    0.098369 0.648538 0.117326 0.178038
H4    H     H_    0.098195 0.655185 0.888418 0.170330
H5    H     H_    0.112299 0.272462 0.494544 0.152870
H6    H     H_    0.888480 0.272347 0.494044 0.163400
H7    H     H_    0.887647 0.727349 0.503711 0.157572
H8    H     H_    0.111447 0.727501 0.504095 0.155334
H9    H     H_    0.358914 0.128176 0.363271 0.122764
H10   H     H_    0.641366 0.132891 0.636473 0.156094
H11   H     H_    0.358772 0.867075 0.363361 0.122842
H12   H     H_    0.641238 0.871833 0.636581 0.156215
N1    N     N_R   0.500000 0.852070 0.500000 -0.168677
N2    N     N_R   0.500000 0.147940 0.500000 -0.161992
O1    O     O_R   0.319640 0.618740 0.499990 -0.607163
O2    O     O_R   0.680360 0.618740 0.500010 -0.586314
O3    O     O_R   0.319620 0.381170 0.499990 -0.599110
O4    O     O_R   0.680380 0.381170 0.500010 -0.559989
O5    O     O_R   0.500000 0.618810 0.319650 -0.591117
O6    O     O_R   0.500000 0.618810 0.680350 -0.566373
O7    O     O_R   0.499970 0.381240 0.319640 -0.541309
O8    O     O_R   0.500030 0.381240 0.680360 -0.579610
S1    S     S_3+6 0.735497 0.361801 0.138910 0.043098
O9    O     O_2   0.817631 0.469812 0.200331 -0.266781
O10   O     O_2   0.691160 0.262919 0.235646 -0.295490
O11   O     O_3   0.819090 0.264816 0.038355 -0.453173
H13   H     H_    0.761594 0.191520 0.006619 0.353463
S2    S     S_3+6 0.757086 0.487536 0.853964 0.017600
O12   O     O_2   0.778852 0.352908 0.782389 -0.342972
O13   O     O_2   0.750634 0.606911 0.765037 -0.329929
O14   O     O_3   0.877023 0.519925 0.950133 -0.453936
H14   H     H_    0.947083 0.466527 0.914247 0.378710

loop_
_geom_bond_atom_site_label_1
_geom_bond_atom_site_label_2
_ccdc_geom_bond_type
Cu1   O2    S    
C10   O6    A    
C15   C18   A    
C6    C8    A    
C6    H10   S    
S2    O13   D    
C9    O5    A    
C8    N1    A    
Cu2   O8    S    
C11   C13   A    
C11   C16   A    
C19   S1    S    
C3    C23   A    
C19   C20   A    
C12   C15   A    
C11   H1    S    
S1    O11   S    
C7    H11   S    
Cu2   O4    S    
C21   C22   A    
Cu1   N1    S    
C21   H5    S    
Cu2   N2    S    
O14   H14   S    
C22   H6    S    
Cu2   O7    S    
C2    O2    A    
C4    C24   A    
C5    H9    S    
C1    O1    A    
C17   C19   A    
C14   H4    S    
Cu2   O3    S    
C9    O7    A    
C18   C20   A    
C8    H12   S    
C4    H8    S    
C10   O8    A    
C10   C18   S    
C6    N2    A    
C21   C24   A    
C13   H3    S    
Cu1   O1    S    
C15   C16   A    
Cu1   O5    S    
C12   C14   A    
O11   H13   S    
C12   H2    S    
C1    C24   S    
C20   S2    S    
S1    O9    D    
C5    N2    A    
C9    C17   S    
C2    C23   S    
C5    C7    A    
C3    H7    S    
S2    O12   D    
C7    N1    A    
C13   C14   A    
Cu1   Cu2   S    
C22   C23   A    
Cu1   O6    S    
C1    O3    A    
C3    C4    A    
C2    O4    A    
C16   C17   A    
S1    O10   D    
S2    O14   S    
