data_str_m2_o1_o21_f0_pcu.sym.41
_audit_creation_date              2012-10-26T19:45:11-0400
_audit_creation_method            fapswitch 2.2
_symmetry_space_group_name_H-M    P1
_symmetry_Int_Tables_number       1
_space_group_crystal_system       triclinic
_cell_length_a                    9.503935
_cell_length_b                    10.853609
_cell_length_c                    13.913161
_cell_angle_alpha                 89.551561
_cell_angle_beta                  84.94673
_cell_angle_gamma                 89.363996
_cell_volume                      1429.47026832

loop_
_atom_site_label
_atom_site_type_symbol
_atom_type_description
_atom_site_fract_x
_atom_site_fract_y
_atom_site_fract_z
_atom_type_partial_charge
C1    C     C_R   0.499196 0.737857 0.498244 0.547008
C2    C     C_R   0.935488 0.442664 0.428443 0.015110
C3    C     C_1   0.536105 0.502450 0.214582 -0.041561
C4    C     C_1   0.463895 0.497549 0.785418 -0.041561
C5    C     C_2   0.557394 0.511567 0.024421 -0.013328
C6    C     C_2   0.442606 0.488433 0.975579 -0.013328
C7    C     C_1   0.453513 0.494150 0.871878 -0.069724
C8    C     C_1   0.546487 0.505849 0.128122 -0.069724
C9    C     C_R   0.611173 0.931694 0.533272 -0.156766
C10   C     C_R   0.388827 0.068306 0.466728 -0.156766
C11   C     C_R   0.615567 0.059209 0.535863 -0.034630
C12   C     C_R   0.500804 0.262143 0.501756 0.547008
C13   C     C_R   0.384433 0.940791 0.464137 -0.034630
C14   C     C_R   0.300781 0.457970 0.024018 0.044884
C15   C     C_R   0.227764 0.355027 0.993994 -0.095107
C16   C     C_R   0.092521 0.328101 0.036301 -0.109538
C17   C     C_R   0.028529 0.403765 0.108622 -0.094314
C18   C     C_R   0.099346 0.506870 0.138368 -0.113133
C19   C     C_R   0.234276 0.534651 0.095782 -0.086766
C20   C     C_R   0.699218 0.542030 0.975982 0.044884
C21   C     C_R   0.772235 0.644973 0.006006 -0.095107
C22   C     C_R   0.907479 0.671899 0.963699 -0.109538
C23   C     C_R   0.502690 0.128285 0.502337 -0.003596
C24   C     C_R   0.971470 0.596235 0.891378 -0.094314
C25   C     C_R   0.900654 0.493130 0.861632 -0.113133
C26   C     C_R   0.765724 0.465349 0.904218 -0.086766
C27   C     C_R   0.737856 0.115463 0.576479 0.057173
C28   C     C_R   0.867003 0.125822 0.519920 -0.088779
C29   C     C_R   0.983921 0.175913 0.559186 -0.109586
C30   C     C_R   0.973110 0.214383 0.655157 -0.098595
C31   C     C_R   0.845161 0.202709 0.712059 -0.113735
C32   C     C_R   0.727302 0.154290 0.672788 -0.073693
C33   C     C_R   0.262143 0.884537 0.423521 0.057173
C34   C     C_R   0.497310 0.871715 0.497663 -0.003596
C35   C     C_R   0.272697 0.845709 0.327212 -0.073692
C36   C     C_R   0.154839 0.797290 0.287941 -0.113735
C37   C     C_R   0.026889 0.785617 0.344843 -0.098595
C38   C     C_R   0.016079 0.824087 0.440814 -0.109586
C39   C     C_R   0.132997 0.874179 0.480080 -0.088780
C40   C     C_R   0.477347 0.499925 0.682843 0.547886
C41   C     C_R   0.522653 0.500074 0.317157 0.547885
C42   C     C_R   0.915685 0.557329 0.571599 0.010612
C43   C     C_R   0.084315 0.442671 0.428401 0.010612
C44   C     C_R   0.064512 0.557336 0.571557 0.015110
Cu1   Cu    Cu3+1 0.359340 0.499980 0.500000 0.936047
Cu2   Cu    Cu3+1 0.640660 0.500020 0.500000 0.936047
H1    H     H_    0.851896 0.604072 0.628634 0.113088
H2    H     H_    0.048894 0.565749 0.193849 0.102223
H3    H     H_    0.286288 0.616572 0.117822 0.101858
H4    H     H_    0.724332 0.704517 0.062119 0.100249
H5    H     H_    0.962908 0.751225 0.987287 0.100081
H6    H     H_    0.076332 0.616930 0.858896 0.110701
H7    H     H_    0.951106 0.434251 0.806151 0.102223
H8    H     H_    0.713712 0.383427 0.882179 0.101858
H9    H     H_    0.876821 0.095460 0.445632 0.103654
H10   H     H_    0.082880 0.184802 0.515279 0.111131
H11   H     H_    0.064018 0.252567 0.685529 0.111603
H12   H     H_    0.148104 0.395928 0.371366 0.113088
H13   H     H_    0.837735 0.229929 0.786855 0.089740
H14   H     H_    0.628673 0.145558 0.717518 0.093137
H15   H     H_    0.371327 0.854441 0.282482 0.093136
H16   H     H_    0.162265 0.770070 0.213146 0.089740
H17   H     H_    0.935982 0.747433 0.314471 0.111603
H18   H     H_    0.917120 0.815199 0.484721 0.111131
H19   H     H_    0.123179 0.904541 0.554368 0.103654
H20   H     H_    0.112532 0.604091 0.628533 0.107300
H21   H     H_    0.887468 0.395909 0.371467 0.107300
H22   H     H_    0.696039 0.879028 0.561580 0.122376
H23   H     H_    0.303961 0.120972 0.438420 0.122376
H24   H     H_    0.275668 0.295483 0.937880 0.100249
H25   H     H_    0.037092 0.248774 0.012712 0.100081
H26   H     H_    0.923668 0.383070 0.141104 0.110701
N1    N     N_R   0.147930 0.499970 0.499980 -0.219458
N2    N     N_R   0.852070 0.500030 0.500020 -0.219458
O1    O     O_R   0.381260 0.680340 0.500000 -0.484919
O2    O     O_R   0.618740 0.319660 0.500000 -0.484919
O3    O     O_R   0.618830 0.680370 0.500010 -0.515156
O4    O     O_R   0.381170 0.319630 0.499990 -0.515156
O5    O     O_R   0.364420 0.499960 0.637840 -0.507999
O6    O     O_R   0.635580 0.500040 0.362160 -0.507998
O7    O     O_R   0.601990 0.499990 0.637850 -0.495479
O8    O     O_R   0.398010 0.500010 0.362150 -0.495478

loop_
_geom_bond_atom_site_label_1
_geom_bond_atom_site_label_2
_ccdc_geom_bond_type
C43   N1    A    
C24   H6    S    
C1    O3    A    
C44   H20   S    
Cu1   O8    S    
C41   O6    A    
Cu2   O2    S    
C5    C20   S    
Cu1   Cu2   S    
C12   C23   S    
C33   C39   A    
C36   C37   A    
C37   C38   A    
C25   H7    S    
C5    C6    D    
C15   C16   A    
C30   H11   S    
Cu1   N1    S    
C18   C19   A    
C31   H13   S    
C43   H12   S    
C3    C41   S    
C4    C40   S    
C16   C17   A    
C12   O4    A    
Cu1   O4    S    
C2    N2    A    
C21   C22   A    
C39   H19   S    
C16   H25   S    
C42   C44   A    
C4    C7    T    
C36   H16   S    
C26   H8    S    
C21   H4    S    
C37   H17   S    
C28   H9    S    
C1    C34   S    
C38   H18   S    
C38   C39   A    
C42   N2    A    
C1    O1    A    
C24   C25   A    
C35   H15   S    
C2    H21   S    
C14   C19   A    
C25   C26   A    
C35   C36   A    
C13   C33   S    
C29   C30   A    
C6    C14   S    
Cu2   O7    S    
C19   H3    S    
C31   C32   A    
C11   C27   S    
C2    C43   A    
C17   C18   A    
C40   O5    A    
Cu1   O5    S    
C9    C11   A    
C3    C8    T    
C12   O2    A    
C9    C34   A    
C22   C24   A    
C5    C8    S    
C32   H14   S    
Cu2   N2    S    
C15   H24   S    
C28   C29   A    
C27   C32   A    
C40   O7    A    
C10   C13   A    
C18   H2    S    
Cu2   O3    S    
C6    C7    S    
C29   H10   S    
C10   C23   A    
Cu1   O1    S    
C9    H22   S    
C13   C34   A    
Cu2   O6    S    
C30   C31   A    
C20   C26   A    
C41   O8    A    
C11   C23   A    
C33   C35   A    
C42   H1    S    
C44   N1    A    
C10   H23   S    
C20   C21   A    
C17   H26   S    
C27   C28   A    
C14   C15   A    
C22   H5    S    
