data_str_m2_o1_o14_f0_pcu.sym.180
_audit_creation_date              2012-12-10T17:56:44-0500
_audit_creation_method            fapswitch 2.2
_symmetry_space_group_name_H-M    P1
_symmetry_Int_Tables_number       1
_space_group_crystal_system       triclinic
_cell_length_a                    10.828141
_cell_length_b                    9.522847
_cell_length_c                    10.767473
_cell_angle_alpha                 90.036011
_cell_angle_beta                  90.222317
_cell_angle_gamma                 90.100482
_cell_volume                      1110.27478209

loop_
_atom_site_label
_atom_site_type_symbol
_atom_type_description
_atom_site_fract_x
_atom_site_fract_y
_atom_site_fract_z
_atom_type_partial_charge
C1    C     C_R   0.262086 0.499910 0.499977 0.761833
C2    C     C_R   0.737940 0.500053 0.500206 0.796125
C3    C     C_R   0.936434 0.627733 0.502326 -0.156323
C4    C     C_R   0.064173 0.627634 0.502174 -0.220701
C5    C     C_R   0.421285 0.074185 0.424662 -0.013322
C6    C     C_R   0.578650 0.074612 0.575386 -0.013617
C7    C     C_R   0.421275 0.925371 0.424658 -0.013580
C8    C     C_R   0.578651 0.925808 0.575382 -0.012256
C9    C     C_R   0.496218 0.499977 0.262491 0.799021
C10   C     C_R   0.496714 0.500044 0.737496 0.799087
C11   C     C_R   0.292104 0.632644 0.128336 -0.314626
C12   C     C_R   0.291477 0.630558 0.869629 -0.299275
C13   C     C_R   0.195223 0.698316 0.064233 0.038566
C14   C     C_R   0.192871 0.693246 0.932707 0.036464
C15   C     C_R   0.390987 0.568181 0.934064 0.103821
C16   C     C_R   0.390736 0.568051 0.064921 0.106452
C17   C     C_R   0.488115 0.499701 0.128732 -0.084759
C18   C     C_R   0.488527 0.499903 0.871174 -0.082683
C19   C     C_R   0.579971 0.427840 0.064383 -0.182691
C20   C     C_R   0.580209 0.427992 0.936330 -0.184704
C21   C     C_R   0.063691 0.372437 0.498505 -0.164073
C22   C     C_R   0.935970 0.372517 0.498656 -0.176182
C23   C     C_R   0.871822 0.500154 0.500437 -0.019248
C24   C     C_R   0.128277 0.499979 0.500199 -0.022272
Cu1   Cu    Cu3+1 0.500000 0.640660 0.500000 0.948220
Cu2   Cu    Cu3+1 0.500000 0.359340 0.500000 0.951511
H1    H     H_    0.653348 0.373929 0.113720 0.157531
H2    H     H_    0.653703 0.374115 0.887647 0.152369
H3    H     H_    0.289514 0.633178 0.228767 0.136628
H4    H     H_    0.286773 0.625786 0.769303 0.143197
H5    H     H_    0.111552 0.272656 0.496942 0.151733
H6    H     H_    0.887758 0.272755 0.497235 0.153402
H7    H     H_    0.888584 0.727515 0.503889 0.155644
H8    H     H_    0.112425 0.727374 0.503546 0.146365
H9    H     H_    0.358231 0.130062 0.364283 0.127255
H10   H     H_    0.641659 0.130831 0.635812 0.124416
H11   H     H_    0.358210 0.869150 0.364269 0.116904
H12   H     H_    0.641672 0.869917 0.635784 0.134460
N1    N     N_R   0.500000 0.852070 0.500000 -0.162776
N2    N     N_R   0.500000 0.147940 0.500000 -0.162181
O1    O     O_R   0.319640 0.618740 0.499990 -0.606011
O2    O     O_R   0.680360 0.618740 0.500010 -0.582742
O3    O     O_R   0.319620 0.381170 0.499990 -0.585330
O4    O     O_R   0.680380 0.381170 0.500010 -0.590765
O5    O     O_R   0.500000 0.618810 0.319650 -0.574918
O6    O     O_R   0.500000 0.618810 0.680350 -0.578207
O7    O     O_R   0.499970 0.381240 0.319640 -0.577651
O8    O     O_R   0.500030 0.381240 0.680360 -0.578146
C25   C     C_2   0.102286 0.774041 0.139709 0.410967
H13   H     H_    0.085840 0.742031 0.234997 0.045966
O9    O     O_2   0.048708 0.877335 0.099782 -0.503513
C26   C     C_2   0.087568 0.743558 0.856293 0.428665
H14   H     H_    0.103205 0.775999 0.760985 0.040481
O10   O     O_2   0.981939 0.741408 0.895402 -0.504533

loop_
_geom_bond_atom_site_label_1
_geom_bond_atom_site_label_2
_ccdc_geom_bond_type
Cu1   O2    S    
C10   O6    A    
C15   C18   A    
C6    H10   S    
C9    O5    A    
C8    N1    A    
C19   H1    S    
C11   C16   A    
C3    C23   A    
C19   C20   A    
C12   C15   A    
Cu2   O8    S    
C21   H5    S    
C7    H11   S    
Cu2   O4    S    
C21   C22   A    
Cu1   N1    S    
C11   C13   A    
Cu2   N2    S    
C22   H6    S    
Cu2   O7    S    
C2    O2    A    
C4    C24   A    
C13   C25   S    
C5    H9    S    
C9    C17   S    
C17   C19   A    
C26   O10   D    
Cu2   O3    S    
C9    O7    A    
C18   C20   A    
C8    H12   S    
C10   O8    A    
C10   C18   S    
C4    H8    S    
C21   C24   A    
C3    H7    S    
Cu1   O1    S    
C15   C16   A    
Cu1   O5    S    
C12   C14   A    
C6    N2    A    
C26   H14   S    
C11   H3    S    
C1    C24   S    
C25   H13   S    
C5    N2    A    
C1    O1    A    
C2    C23   S    
C5    C7    A    
C7    N1    A    
C22   C23   A    
C6    C8    A    
C20   H2    S    
C12   H4    S    
Cu1   Cu2   S    
C13   C14   A    
Cu1   O6    S    
C1    O3    A    
C14   C26   S    
C3    C4    A    
C2    O4    A    
C16   C17   A    
C25   O9    D    
