data_str_m2_o4_o18_f0_pcu.sym.132
_audit_creation_date              2012-12-10T19:01:19-0500
_audit_creation_method            fapswitch 2.2
_symmetry_space_group_name_H-M    P1
_symmetry_Int_Tables_number       1
_space_group_crystal_system       triclinic
_cell_length_a                    9.58793
_cell_length_b                    10.80667
_cell_length_c                    15.398966
_cell_angle_alpha                 89.37125
_cell_angle_beta                  73.667575
_cell_angle_gamma                 91.025977
_cell_volume                      1530.6976296

loop_
_atom_site_label
_atom_site_type_symbol
_atom_type_description
_atom_site_fract_x
_atom_site_fract_y
_atom_site_fract_z
_atom_type_partial_charge
C1    C     C_R   0.998852 0.262638 0.500485 0.787891
C2    C     C_R   0.685465 0.530942 0.913550 0.097063
C3    C     C_R   0.777774 0.479922 0.961352 0.083442
C4    C     C_R   0.546383 0.573043 0.962224 0.023069
C5    C     C_R   0.492336 0.545184 0.055689 -0.072749
C6    C     C_R   0.593903 0.510088 0.103446 0.412404
C7    C     C_R   0.732625 0.473711 0.055648 -0.185482
C8    C     C_R   0.465191 0.651104 0.922284 -0.221782
C9    C     C_R   0.329108 0.693089 0.971420 -0.011121
C10   C     C_R   0.257690 0.636471 0.056528 0.009638
C11   C     C_R   0.340557 0.557989 0.097770 -0.042365
C12   C     C_R   0.917579 0.498493 0.672445 0.787006
C13   C     C_R   0.107579 0.654037 0.102356 -0.112603
C14   C     C_R   0.050018 0.606352 0.190228 -0.325226
C15   C     C_R   0.268427 0.493193 0.179241 0.341059
C16   C     C_R   0.126476 0.067733 0.467156 0.049359
C17   C     C_R   0.997393 0.129389 0.503912 -0.115120
C18   C     C_R   0.870721 0.061375 0.547647 -0.174281
C19   C     C_R   0.872431 0.932272 0.547780 -0.200699
C20   C     C_R   0.000663 0.870935 0.503956 -0.036982
C21   C     C_R   0.128424 0.939940 0.466639 0.030636
C22   C     C_3   0.227802 0.939709 0.371984 0.175547
C23   C     C_R   0.000951 0.737544 0.499774 0.843127
C24   C     C_3   0.225111 0.080018 0.373084 0.167853
C25   C     C_R   0.605197 0.561591 0.433500 0.268878
C26   C     C_R   0.541698 0.432346 0.562728 0.444149
C27   C     C_R   0.394463 0.433660 0.562189 -0.044453
C28   C     C_R   0.457854 0.561044 0.433453 0.230911
C29   C     C_3   0.462717 0.696003 0.412990 -0.533117
C30   C     C_3   0.620132 0.697645 0.414408 0.174623
C31   C     C_R   0.082747 0.503253 0.327599 0.875733
C32   C     C_R   0.872179 0.494972 0.771809 -0.053992
C33   C     C_R   0.131482 0.530368 0.229893 -0.079010
C34   C     C_R   0.916969 0.440603 0.914424 -0.092565
C35   C     C_R   0.964616 0.449681 0.820319 -0.146535
C36   C     C_R   0.733410 0.534427 0.818380 -0.198519
Cu1   Cu    Cu3+1 0.140670 0.499980 0.500000 0.975200
Cu2   Cu    Cu3+1 0.859330 0.500020 0.500000 0.976940
H1    H     H_    0.806981 0.443661 0.092880 0.167947
H2    H     H_    0.770592 0.107633 0.579960 0.165831
H3    H     H_    0.773200 0.880635 0.580212 0.154950
H4    H     H_    0.336026 0.901169 0.366987 0.139075
H5    H     H_    0.174762 0.123498 0.323513 0.144020
H6    H     H_    0.313457 0.381366 0.613224 0.166421
H7    H     H_    0.447926 0.714552 0.345122 0.211670
H8    H     H_    0.391965 0.749196 0.469214 0.183783
H9    H     H_    0.642121 0.752677 0.470026 0.126022
H10   H     H_    0.939588 0.626468 0.227590 0.237511
H11   H     H_    0.989365 0.403682 0.950649 0.138647
H12   H     H_    0.072321 0.418476 0.785411 0.151729
H13   H     H_    0.662615 0.564487 0.779119 0.164302
H14   H     H_    0.513946 0.692326 0.856175 0.160856
N1    N     N_R   0.648210 0.500930 0.499430 -0.281647
N2    N     N_R   0.352300 0.500890 0.499430 -0.236150
O1    O     O_R   0.118810 0.319640 0.500000 -0.576802
O2    O     O_R   0.881230 0.319680 0.499990 -0.605015
O3    O     O_R   0.055580 0.499970 0.629840 -0.582498
O4    O     O_R   0.818000 0.500010 0.629830 -0.581663
O5    O     O_R   0.118770 0.680320 0.500010 -0.584720
O6    O     O_R   0.881190 0.680360 0.500000 -0.588287
O7    O     O_R   0.182000 0.499990 0.370170 -0.540100
O8    O     O_R   0.944420 0.500030 0.370160 -0.563577
C37   C     C_2   0.003345 0.713965 0.060455 0.923937
O9    O     O_2   0.999363 0.684158 0.985002 -0.558530
O10   O     O_R   0.906439 0.802320 0.106665 -0.694182
H15   H     H_    0.924857 0.827693 0.165670 0.323533
O11   O     O_3   0.159000 0.889640 0.310699 -0.741383
H16   H     H_    0.233482 0.890976 0.251056 0.340855
O12   O     O_3   0.360457 0.132023 0.372217 -0.710436
H17   H     H_    0.349754 0.223036 0.369594 0.369572
O13   O     O_3   0.570117 0.364191 0.631407 -0.738086
H18   H     H_    0.669841 0.335046 0.610587 0.368103
O14   O     O_3   0.325070 0.389930 0.209490 -0.712325
H19   H     H_    0.385878 0.346794 0.156089 0.339639
O15   O     O_3   0.715897 0.724035 0.329041 -0.695683
H20   H     H_    0.719430 0.815542 0.322392 0.343571
C38   C     C_2   0.275529 0.804897 0.935335 0.881947
O16   O     O_2   0.284067 0.813626 0.854722 -0.575120
O17   O     O_R   0.221306 0.902717 0.992954 -0.759091
H21   H     H_    0.189404 0.974238 0.960437 0.346432
O18   O     O_3   0.566801 0.519906 0.195890 -0.672133
H22   H     H_    0.494140 0.585016 0.216615 0.339149

loop_
_geom_bond_atom_site_label_1
_geom_bond_atom_site_label_2
_ccdc_geom_bond_type
C8    C9    A    
C37   O10   S    
C16   C21   A    
O14   H19   S    
C31   O7    A    
C19   C20   A    
C4    C8    A    
C14   C33   A    
O18   H22   S    
C27   N2    A    
C38   O16   D    
C25   C28   A    
C23   O5    A    
C26   C27   A    
C29   C30   S    
C32   C36   A    
C28   C29   S    
C1    O2    A    
C25   N1    A    
C5    C11   A    
C3    C7    A    
C5    C6    A    
C34   C35   A    
C18   H2    S    
Cu2   O4    S    
C11   C15   A    
C27   H6    S    
C16   C17   A    
C31   C33   S    
C9    C10   A    
C8    H14   S    
C12   O4    A    
C16   C24   S    
C6    O18   S    
C13   C14   A    
C12   C32   S    
C26   O13   S    
C31   O8    A    
C24   O12   S    
C38   O17   S    
C23   O6    A    
O11   H16   S    
C32   C35   A    
C30   H9    S    
C28   N2    A    
C18   C19   A    
C14   H10   S    
C3    C34   A    
C37   O9    D    
C29   H7    S    
C2    C4    A    
O15   H20   S    
Cu1   Cu2   S    
C13   C37   S    
C20   C23   S    
C35   H12   S    
C17   C18   A    
C9    C38   S    
Cu1   O5    S    
C36   H13   S    
Cu2   O6    S    
C12   O3    A    
C15   O14   S    
C22   C24   S    
Cu1   N2    S    
C26   N1    A    
C2    C36   A    
C25   C30   S    
C34   H11   S    
C4    C5    A    
C10   C13   A    
Cu1   O7    S    
C6    C7    A    
C1    C17   S    
C29   H8    S    
C2    C3    A    
C1    O1    A    
O13   H18   S    
C30   O15   S    
C22   H4    S    
Cu2   N1    S    
O12   H17   S    
C22   O11   S    
C10   C11   A    
O17   H21   S    
Cu1   O1    S    
Cu2   O2    S    
C20   C21   A    
O10   H15   S    
C24   H5    S    
C7    H1    S    
C21   C22   S    
C15   C33   A    
Cu1   O3    S    
C19   H3    S    
Cu2   O8    S    
