data_str_m2_o4_o14_f0_pcu.sym.168
_audit_creation_date              2012-12-10T18:59:15-0500
_audit_creation_method            fapswitch 2.2
_symmetry_space_group_name_H-M    P1
_symmetry_Int_Tables_number       1
_space_group_crystal_system       triclinic
_cell_length_a                    10.82996
_cell_length_b                    10.886971
_cell_length_c                    9.519365
_cell_angle_alpha                 90.154188
_cell_angle_beta                  89.437598
_cell_angle_gamma                 91.691767
_cell_volume                      1121.83859599

loop_
_atom_site_label
_atom_site_type_symbol
_atom_type_description
_atom_site_fract_x
_atom_site_fract_y
_atom_site_fract_z
_atom_type_partial_charge
C1    C     C_R   0.501338 0.262298 0.498704 0.778259
C2    C     C_R   0.058677 0.499065 0.636965 0.102195
C3    C     C_R   0.126298 0.502171 0.507328 -0.123958
C4    C     C_R   0.063769 0.483900 0.380339 -0.217631
C5    C     C_R   0.936813 0.468607 0.379182 -0.211803
C6    C     C_R   0.869730 0.466157 0.504833 -0.120318
C7    C     C_R   0.486735 0.064330 0.619663 0.036034
C8    C     C_R   0.507273 0.129001 0.494400 -0.167212
C9    C     C_R   0.536363 0.062368 0.368961 0.128090
C10   C     C_R   0.533872 0.933833 0.376306 -0.216258
C11   C     C_R   0.504444 0.870925 0.500678 -0.129378
C12   C     C_R   0.261672 0.504482 0.501778 0.793167
C13   C     C_R   0.487266 0.938011 0.623468 0.068529
C14   C     C_3   0.385027 0.930187 0.730066 -0.461652
C15   C     C_3   0.384196 0.070301 0.726863 -0.032036
C16   C     C_R   0.597574 0.553073 0.072145 0.167805
C17   C     C_R   0.412582 0.435248 0.075302 -0.087997
C18   C     C_R   0.413107 0.434533 0.926290 -0.089228
C19   C     C_R   0.594908 0.556447 0.924446 0.167321
C20   C     C_3   0.631508 0.690199 0.920199 -0.136418
C21   C     C_3   0.647666 0.683636 0.080500 -0.103766
C22   C     C_R   0.498458 0.737634 0.500441 0.798645
C23   C     C_R   0.736375 0.484952 0.500462 0.783883
C24   C     C_R   0.109939 0.530870 0.769442 -0.169772
C25   C     C_R   0.048176 0.499723 0.894152 -0.178052
C26   C     C_R   0.934005 0.438551 0.889589 -0.177710
C27   C     C_R   0.876048 0.420167 0.760987 -0.167005
C28   C     C_R   0.933173 0.461308 0.634300 0.097848
Cu1   Cu    Cu3+1 0.499990 0.499980 0.640670 0.917104
Cu2   Cu    Cu3+1 0.500010 0.500020 0.359330 0.922829
H1    H     H_    0.112796 0.482418 0.280625 0.157315
H2    H     H_    0.415945 0.894739 0.832601 0.165554
H3    H     H_    0.416413 0.113858 0.826410 0.163274
H4    H     H_    0.340415 0.384881 0.131885 0.133435
H5    H     H_    0.550690 0.745223 0.892166 0.162642
H6    H     H_    0.582650 0.743819 0.134523 0.166748
H7    H     H_    0.195302 0.583358 0.780081 0.164030
H8    H     H_    0.888227 0.409308 0.985957 0.128041
N1    N     N_R   0.500790 0.500930 0.147930 -0.186559
N2    N     N_R   0.500790 0.500890 0.852020 -0.193091
O1    O     O_R   0.500000 0.319640 0.618810 -0.581973
O2    O     O_R   0.500010 0.319680 0.381230 -0.600214
O3    O     O_R   0.319640 0.499980 0.618820 -0.597904
O4    O     O_R   0.319650 0.500020 0.381230 -0.581488
O5    O     O_R   0.499990 0.680320 0.618770 -0.582081
O6    O     O_R   0.500000 0.680360 0.381190 -0.590574
O7    O     O_R   0.680350 0.499980 0.618770 -0.604328
O8    O     O_R   0.680360 0.500020 0.381180 -0.573684
C29   C     C_3   0.263210 0.122453 0.671157 -0.354065
C30   C     C_3   0.160151 0.113374 0.781462 -0.842313
H9    H     H_    0.139015 0.015828 0.808663 0.253039
H10   H     H_    0.187705 0.164545 0.877877 0.244547
H11   H     H_    0.075336 0.154233 0.739455 0.249588
H12   H     H_    0.278204 0.220941 0.644461 0.212361
H13   H     H_    0.233323 0.073148 0.574205 0.206734
H14   H     H_    0.341587 0.383282 0.870907 0.148657
C31   C     C_3   0.743845 0.722647 0.824794 -0.319181
C32   C     C_3   0.774514 0.860767 0.824648 -0.884950
H15   H     H_    0.695641 0.911857 0.783400 0.260987
H16   H     H_    0.795232 0.896084 0.931223 0.258317
H17   H     H_    0.856213 0.879850 0.755879 0.243989
H18   H     H_    0.825990 0.669669 0.852088 0.210609
H19   H     H_    0.720854 0.698762 0.715214 0.245048
C33   C     C_3   0.782491 0.691214 0.136570 -0.325715
C34   C     C_3   0.794312 0.756386 0.278271 -0.833457
H20   H     H_    0.779399 0.855983 0.266298 0.234928
H21   H     H_    0.727809 0.719077 0.356435 0.277989
H22   H     H_    0.888920 0.745142 0.319381 0.238943
H23   H     H_    0.819862 0.598191 0.143588 0.191557
H24   H     H_    0.846653 0.742417 0.066169 0.215103
H25   H     H_    0.089963 0.521438 0.994402 0.131064
H26   H     H_    0.787756 0.371197 0.761999 0.162249
H27   H     H_    0.891084 0.457817 0.279617 0.150651
C35   C     C_3   0.563353 0.126361 0.227973 -0.334594
C36   C     C_3   0.598384 0.045404 0.102772 -0.928886
H28   H     H_    0.683140 0.994910 0.125420 0.260778
H29   H     H_    0.521287 0.980344 0.075643 0.248169
H30   H     H_    0.617581 0.104387 0.009581 0.248860
H31   H     H_    0.479517 0.174964 0.195605 0.221041
H32   H     H_    0.641005 0.194172 0.242343 0.216231
H33   H     H_    0.550663 0.881584 0.283738 0.178440
H34   H     H_    0.300561 0.882876 0.688318 0.192625

loop_
_geom_bond_atom_site_label_1
_geom_bond_atom_site_label_2
_ccdc_geom_bond_type
C16   C21   S    
C1    C8    S    
C19   C20   S    
C7    C8    A    
C21   H6    S    
C26   C27   A    
Cu1   O7    S    
Cu2   O8    S    
C12   O3    A    
C5    C6    A    
C32   H16   S    
C29   H12   S    
C17   C18   A    
C17   N1    A    
C18   N2    A    
C21   C33   S    
C3    C12   S    
C20   H5    S    
C6    C28   A    
C8    C9    A    
C34   H21   S    
C30   H10   S    
C25   H25   S    
C33   H24   S    
C9    C10   A    
C18   H14   S    
C32   H17   S    
C7    C15   S    
C35   H32   S    
C13   C14   S    
Cu1   O3    S    
Cu2   O4    S    
C31   H19   S    
C30   H11   S    
C23   O7    A    
C35   C36   S    
C31   H18   S    
C24   C25   A    
C10   C11   A    
C26   H8    S    
C30   H9    S    
C25   C26   A    
C29   H13   S    
Cu1   O5    S    
C36   H28   S    
Cu1   Cu2   S    
C34   H22   S    
C24   H7    S    
C33   H23   S    
C36   H29   S    
C1    O1    A    
C22   O6    A    
C29   C30   S    
C35   H31   S    
C2    C24   A    
C17   H4    S    
C14   H34   S    
C3    C4    A    
C23   O8    A    
C10   H33   S    
Cu1   O1    S    
Cu2   O6    S    
C14   H2    S    
C4    C5    A    
C11   C22   S    
C33   C34   S    
C2    C3    A    
C32   H15   S    
C12   O4    A    
C11   C13   A    
C31   C32   S    
C16   C19   A    
C6    C23   S    
Cu1   N2    S    
Cu2   N1    S    
C15   C29   S    
C5    H27   S    
C36   H30   S    
C4    H1    S    
C19   N2    A    
C16   N1    A    
C1    O2    A    
C7    C13   A    
C22   O5    A    
C20   C21   S    
C34   H20   S    
C9    C35   S    
C27   C28   A    
C14   C15   S    
Cu2   O2    S    
C2    C28   A    
C20   C31   S    
C15   H3    S    
C27   H26   S    
