data_str_m2_o4_o16_f0_pcu.sym.9
_audit_creation_date              2012-10-26T19:52:31-0400
_audit_creation_method            fapswitch 2.2
_symmetry_space_group_name_H-M    P1
_symmetry_Int_Tables_number       1
_space_group_crystal_system       triclinic
_cell_length_a                    9.621263
_cell_length_b                    10.859727
_cell_length_c                    13.4148
_cell_angle_alpha                 92.310846
_cell_angle_beta                  73.430048
_cell_angle_gamma                 90.318893
_cell_volume                      1342.31082574

loop_
_atom_site_label
_atom_site_type_symbol
_atom_type_description
_atom_site_fract_x
_atom_site_fract_y
_atom_site_fract_z
_atom_type_partial_charge
C1    C     C_R   0.503486 0.737313 0.494645 0.584109
C2    C     C_R   0.387502 0.440491 0.806359 -0.000766
C3    C     C_R   0.391691 0.934316 0.474370 -0.035042
C4    C     C_R   0.424760 0.481163 0.697325 0.555975
C5    C     C_R   0.510633 0.871215 0.488209 0.015017
C6    C     C_R   0.630529 0.940401 0.501185 0.231579
C7    C     C_R   0.621503 0.067952 0.510610 -0.120874
C8    C     C_R   0.500317 0.129799 0.499164 -0.034629
C9    C     C_R   0.385853 0.062201 0.480771 0.005450
C10   C     C_3   0.330036 0.069442 0.388263 -0.254313
C11   C     C_3   0.341641 0.930639 0.378113 -0.268823
C12   C     C_R   0.449754 0.426327 0.970561 0.033817
C13   C     C_R   0.948997 0.413570 0.442140 0.113585
C14   C     C_R   0.898330 0.574286 0.568109 0.340070
C15   C     C_R   0.047121 0.576555 0.566998 0.076695
C16   C     C_R   0.500128 0.262810 0.498881 0.531530
C17   C     C_R   0.095932 0.413991 0.441764 0.136463
C18   C     C_3   0.144762 0.397328 0.326447 -0.278298
C19   C     C_3   0.987298 0.392956 0.327418 -0.274704
C20   C     C_R   0.577619 0.499062 0.299972 0.532012
C21   C     C_R   0.808597 0.479345 0.020087 -0.131150
C22   C     C_R   0.622481 0.489059 0.185454 -0.000289
C23   C     C_R   0.494383 0.427487 0.860389 0.039506
C24   C     C_R   0.243280 0.412613 0.858447 -0.144995
C25   C     C_R   0.202572 0.390014 0.964135 -0.146591
C26   C     C_R   0.302340 0.403122 0.020959 -0.120725
C27   C     C_R   0.087786 0.667113 0.639192 0.112397
C28   C     C_R   0.073422 0.636802 0.742191 -0.035124
C29   C     C_R   0.095598 0.725270 0.814622 -0.093911
C30   C     C_R   0.124327 0.847131 0.786094 -0.095293
C31   C     C_R   0.127327 0.880577 0.686045 -0.092601
C32   C     C_R   0.106763 0.791229 0.613530 -0.017130
C33   C     C_R   0.555430 0.445751 0.025128 0.029914
C34   C     C_R   0.704090 0.450093 0.968905 0.056503
C35   C     C_R   0.746674 0.423069 0.862363 -0.115865
C36   C     C_R   0.643463 0.409841 0.808952 -0.079663
C37   C     C_R   0.517666 0.465642 0.133367 -0.133663
C38   C     C_R   0.768249 0.498632 0.127746 -0.133494
Cl1   Cl    Cl    0.773245 0.669273 0.661262 -0.526428
Cl2   Cl    Cl    0.802201 0.878020 0.493202 -0.592549
Cu1   Cu    Cu3+1 0.359330 0.500020 0.500010 0.943514
Cu2   Cu    Cu3+1 0.640670 0.499980 0.499990 1.034918
H1    H     H_    0.850950 0.521408 0.165276 0.120234
H2    H     H_    0.859965 0.411719 0.820043 0.092509
H3    H     H_    0.952788 0.300854 0.304460 0.133237
H4    H     H_    0.920969 0.489284 0.976232 0.097924
H5    H     H_    0.406797 0.465255 0.178293 0.110591
H6    H     H_    0.162753 0.403941 0.816921 0.112540
H7    H     H_    0.262763 0.387436 0.102943 0.098457
H8    H     H_    0.092616 0.363674 0.003101 0.114777
H9    H     H_    0.683291 0.380232 0.728122 0.152453
H10   H     H_    0.042644 0.545070 0.766217 0.084430
H11   H     H_    0.087434 0.699818 0.893288 0.112797
H12   H     H_    0.713720 0.118877 0.521356 0.167117
H13   H     H_    0.140008 0.916192 0.842288 0.117956
H14   H     H_    0.143128 0.975978 0.665249 0.121652
H15   H     H_    0.101183 0.818767 0.538479 0.145283
H16   H     H_    0.216335 0.103900 0.409955 0.151681
H17   H     H_    0.405973 0.116335 0.322431 0.135823
H18   H     H_    0.235361 0.885469 0.387839 0.155307
H19   H     H_    0.427570 0.896917 0.307827 0.141317
H20   H     H_    0.197738 0.481769 0.290217 0.145921
H21   H     H_    0.204289 0.309160 0.299592 0.120122
H22   H     H_    0.956362 0.471844 0.288295 0.151310
N1    N     N_R   0.852320 0.499070 0.499340 -0.233526
N2    N     N_R   0.148230 0.499110 0.499340 -0.267236
O1    O     O_R   0.381190 0.680360 0.500000 -0.515401
O2    O     O_R   0.618780 0.680320 0.499990 -0.387527
O3    O     O_R   0.323230 0.500000 0.650990 -0.512981
O4    O     O_R   0.560820 0.499960 0.650980 -0.461059
O5    O     O_R   0.381220 0.319680 0.500010 -0.498866
O6    O     O_R   0.618810 0.319640 0.500000 -0.528388
O7    O     O_R   0.439180 0.500040 0.349020 -0.514407
O8    O     O_R   0.676770 0.500000 0.349010 -0.510181

loop_
_geom_bond_atom_site_label_1
_geom_bond_atom_site_label_2
_ccdc_geom_bond_type
Cu1   Cu2   S    
C35   C36   A    
C16   O6    A    
C4    O4    A    
C7    C8    A    
Cu1   O1    S    
C13   N1    A    
C12   C23   A    
C17   N2    A    
C1    C5    S    
C28   C29   A    
C10   H16   S    
C18   C19   S    
C5    C6    A    
C18   H21   S    
C22   C38   A    
Cu2   O4    S    
C1    O2    A    
C34   C35   A    
C25   H8    S    
C14   Cl1   S    
C21   C38   A    
C8    C9    A    
Cu2   N1    S    
C22   C37   A    
C31   H14   S    
C37   H5    S    
C9    C10   S    
Cu1   O5    S    
C8    C16   S    
Cu2   O2    S    
C16   O5    A    
C32   H15   S    
C4    O3    A    
C33   C34   A    
Cu2   O8    S    
C13   C19   S    
C24   H6    S    
C24   C25   A    
C26   H7    S    
C18   H20   S    
C21   C34   A    
C3    C5    A    
C25   C26   A    
C15   N2    A    
C33   C37   A    
C12   C26   A    
C2    C4    S    
C29   C30   A    
C3    C9    A    
C15   C27   S    
C31   C32   A    
C19   H22   S    
Cu2   O6    S    
C17   C18   S    
C20   O8    A    
C35   H2    S    
C6    C7    A    
C36   H9    S    
C20   C22   S    
C2    C24   A    
C6    Cl2   S    
C11   H18   S    
C27   C28   A    
Cu1   O3    S    
C21   H4    S    
C27   C32   A    
C11   H19   S    
C19   H3    S    
Cu1   N2    S    
C30   H13   S    
C13   C17   A    
C10   H17   S    
C38   H1    S    
C28   H10   S    
C30   C31   A    
C29   H11   S    
C1    O1    A    
C14   N1    A    
C20   O7    A    
C3    C11   S    
C10   C11   S    
Cu1   O7    S    
C23   C36   A    
C2    C23   A    
C14   C15   A    
C7    H12   S    
C12   C33   A    
