data_str_m2_o4_o14_f0_pcu.sym.182
_audit_creation_date              2013-03-05T16:31:07-0500
_audit_creation_method            fapswitch 2.2
_symmetry_space_group_name_H-M    P1
_symmetry_Int_Tables_number       1
_space_group_crystal_system       triclinic
_cell_length_a                    10.867415
_cell_length_b                    10.840638
_cell_length_c                    9.551988
_cell_angle_alpha                 90.16249
_cell_angle_beta                  89.965487
_cell_angle_gamma                 89.74233
_cell_volume                      1125.30083762

loop_
_atom_site_label
_atom_site_type_symbol
_atom_site_description
_atom_site_fract_x
_atom_site_fract_y
_atom_site_fract_z
_atom_type_partial_charge
O1    O     O_R   0.500000 0.319640 0.618810 -0.598747
O2    O     O_R   0.500010 0.319680 0.381230 -0.601283
C1    C     C_R   0.502900 0.262411 0.499710 0.787210
O3    O     O_R   0.319640 0.499980 0.618820 -0.565284
O4    O     O_R   0.319650 0.500020 0.381230 -0.516511
C2    C     C_R   0.262124 0.510373 0.499783 0.875447
Cu1   Cu    Cu3+1 0.499990 0.499980 0.640670 0.984215
Cu2   Cu    Cu3+1 0.500010 0.500020 0.359330 0.999395
O5    O     O_R   0.499990 0.680320 0.618770 -0.556033
O6    O     O_R   0.500000 0.680360 0.381190 -0.583208
O7    O     O_R   0.680350 0.499980 0.618770 -0.600709
O8    O     O_R   0.680360 0.500020 0.381180 -0.594508
C3    C     C_R   0.501722 0.737788 0.500134 0.848730
C4    C     C_R   0.737619 0.489640 0.500393 0.809867
C5    C     C_R   0.106791 0.582292 0.751506 0.368492
C6    C     C_R   0.049908 0.553657 0.878676 -0.122210
H1    H     H_    0.081705 0.595090 0.974181 0.242185
C7    C     C_R   0.948544 0.475992 0.882236 -0.205733
H2    H     H_    0.907997 0.450330 0.981471 0.176702
C8    C     C_R   0.891796 0.442055 0.757460 -0.181224
H3    H     H_    0.810150 0.385687 0.763493 0.169468
C9    C     C_R   0.939922 0.482236 0.628270 0.057566
C10   C     C_R   0.060093 0.529728 0.626075 -0.057917
C11   C     C_R   0.126717 0.523326 0.498702 -0.183145
C12   C     C_R   0.061222 0.508946 0.371830 0.353279
H4    H     H_    0.885761 0.489378 0.275965 0.167810
C13   C     C_R   0.934905 0.492057 0.374539 -0.271495
C14   C     C_R   0.872430 0.480628 0.501723 -0.143032
C15   C     C_R   0.528229 0.064444 0.623598 0.123342
C16   C     C_R   0.516116 0.129455 0.498520 -0.079926
C17   C     C_R   0.520579 0.063959 0.371374 -0.200274
H5    H     H_    0.518450 0.111393 0.271745 0.160957
C18   C     C_R   0.519122 0.935368 0.371904 -0.191992
H6    H     H_    0.516250 0.887173 0.272527 0.166102
C19   C     C_R   0.513187 0.871081 0.499530 -0.076956
C20   C     C_R   0.526277 0.937338 0.624425 0.087593
C21   C     C_3   0.451769 0.935004 0.756190 -0.372676
C22   C     C_3   0.455716 0.074668 0.755694 -0.493602
H7    H     H_    0.357666 0.899255 0.739887 0.278886
H8    H     H_    0.502046 0.894274 0.845976 0.189537
H9    H     H_    0.363945 0.118296 0.739948 0.211516
H10   H     H_    0.511020 0.113636 0.842995 0.192894
C23   C     C_R   0.539354 0.601008 0.073890 0.302876
N1    N     N_R   0.500790 0.500930 0.147930 -0.196642
C24   C     C_R   0.447864 0.406569 0.074116 -0.008115
H11   H     H_    0.407342 0.329868 0.129319 0.154158
C25   C     C_R   0.447726 0.406653 0.925333 -0.063216
H12   H     H_    0.406677 0.330336 0.869734 0.142897
N2    N     N_R   0.500790 0.500890 0.852020 -0.195040
C26   C     C_R   0.538700 0.601353 0.926689 0.336303
C27   C     C_3   0.662305 0.659928 0.920727 -0.534410
C28   C     C_3   0.663575 0.658465 0.079663 -0.527849
H13   H     H_    0.732274 0.599007 0.872974 0.230408
H14   H     H_    0.659538 0.754306 0.876346 0.201674
H15   H     H_    0.734735 0.595706 0.123510 0.213133
H16   H     H_    0.660980 0.752275 0.126736 0.202868
N3    N     N_R   0.120233 0.517738 0.238633 0.107265
O9    O     O_R   0.123631 0.422344 0.155784 -0.404677
O10   O     O_R   0.176220 0.618960 0.203444 -0.348461
N4    N     N_R   0.197802 0.678066 0.748877 0.119283
O11   O     O_R   0.204897 0.751443 0.641544 -0.408037
O12   O     O_R   0.262893 0.702105 0.859911 -0.379145

loop_
_geom_bond_atom_site_label_1
_geom_bond_atom_site_label_2
_geom_bond_distance
_ccdc_geom_bond_type
C15   C22   1.490828 S    
C1    C16   1.447836 S    
C27   H13   1.102608 S    
C23   N1    1.364161 A    
C17   C18   1.394185 A    
C23   C26   1.406097 A    
C22   H10   1.111732 S    
C21   C22   1.514870 S    
O4    Cu2   1.971053 S    
C5    N4    1.437422 S    
C17   H5    1.083190 S    
C19   C20   1.398445 A    
C28   H15   1.110676 S    
C16   C17   1.405777 A    
Cu2   O8    1.971146 S    
C27   H14   1.108871 S    
C2    C11   1.477625 S    
C5    C10   1.420281 A    
O2    C1    1.292699 A    
H4    C13   1.083166 S    
Cu1   Cu2   2.687357 S    
C21   H7    1.106197 S    
C9    C14   1.414378 A    
C24   H11   1.081126 S    
C11   C12   1.414398 A    
N4    O12   1.301591 A    
Cu1   O7    1.971053 S    
C15   C20   1.378215 A    
N3    O9    1.300784 A    
C15   C16   1.394834 A    
C12   N3    1.428047 S    
C25   N2    1.369471 A    
O3    Cu1   1.971144 S    
O3    C2    1.302762 A    
C20   C21   1.496503 S    
C18   C19   1.407528 A    
C8    C9    1.410819 A    
C3    C19   1.450936 S    
C21   H8    1.108856 S    
C7    C8    1.391637 A    
C24   C25   1.421180 A    
O4    C2    1.297533 A    
O7    C4    1.294716 A    
C23   C28   1.490255 S    
N3    O10   1.301963 A    
C12   C13   1.385949 A    
C5    C6    1.398928 A    
C10   C11   1.416802 A    
C27   C28   1.518356 S    
C25   H12   1.080105 S    
Cu2   N1    2.019354 S    
C18   H6    1.082769 S    
C8    H3    1.081196 S    
Cu1   N2    2.018834 S    
C22   H9    1.112342 S    
C6    C7    1.389936 A    
N2    C26   1.365480 A    
C13   C14   1.397426 A    
Cu1   O5    1.966750 S    
O5    C3    1.294880 A    
C9    C10   1.406075 A    
C7    H2    1.082659 S    
C26   C27   1.489499 S    
N4    O11   1.301886 A    
C4    C14   1.467927 S    
O1    Cu1   1.965531 S    
Cu2   O6    1.965531 S    
O2    Cu2   1.966751 S    
N1    C24   1.369680 A    
C28   H16   1.110998 S    
O8    C4    1.302881 A    
C6    H1    1.073695 S    
O1    C1    1.294561 A    
O6    C3    1.294170 A    
