data_str_m2_o4_o14_f0_pcu.sym.2
_audit_creation_date              2012-10-26T19:35:13-0400
_audit_creation_method            fapswitch 2.2
_symmetry_space_group_name_H-M    P1
_symmetry_Int_Tables_number       1
_space_group_crystal_system       triclinic
_cell_length_a                    10.803065
_cell_length_b                    10.825511
_cell_length_c                    9.551582
_cell_angle_alpha                 90.324781
_cell_angle_beta                  92.364875
_cell_angle_gamma                 89.93168
_cell_volume                      1116.07527202

loop_
_atom_site_label
_atom_site_type_symbol
_atom_type_description
_atom_site_fract_x
_atom_site_fract_y
_atom_site_fract_z
_atom_type_partial_charge
C1    C     C_R   0.497745 0.262521 0.499531 0.531903
C2    C     C_R   0.432536 0.934715 0.389478 -0.160184
C3    C     C_R   0.493170 0.871103 0.500559 0.010622
C4    C     C_R   0.262702 0.497722 0.496925 0.534791
C5    C     C_R   0.543088 0.937617 0.614764 0.013928
C6    C     C_3   0.673652 0.935679 0.673471 -0.285111
C7    C     C_3   0.669770 0.074947 0.674755 -0.263118
C8    C     C_R   0.587353 0.564697 0.078256 0.166384
C9    C     C_R   0.421398 0.426526 0.070305 -0.014172
C10   C     C_R   0.421531 0.426350 0.921346 -0.001620
C11   C     C_R   0.586962 0.564850 0.931404 0.212081
C12   C     C_R   0.071385 0.393987 0.565459 0.015124
C13   C     C_3   0.612174 0.699530 0.927588 -0.273314
C14   C     C_3   0.611260 0.700077 0.086395 -0.275664
C15   C     C_R   0.499620 0.737673 0.500131 0.544440
C16   C     C_R   0.738317 0.495520 0.503920 0.539397
C17   C     C_R   0.136327 0.287235 0.610592 -0.111214
C18   C     C_R   0.078575 0.198769 0.689966 -0.157186
C19   C     C_R   0.961782 0.222610 0.739500 -0.141868
C20   C     C_R   0.899315 0.332584 0.703581 0.056134
C21   C     C_R   0.945321 0.408104 0.595385 0.011119
C22   C     C_2   0.823649 0.384585 0.814930 0.600684
C23   C     C_R   0.129524 0.486885 0.490100 0.010328
C24   C     C_R   0.060207 0.576448 0.417952 -0.147086
C25   C     C_R   0.932621 0.576932 0.424734 -0.143061
C26   C     C_R   0.873708 0.495292 0.513680 0.009239
C27   C     C_R   0.540907 0.065191 0.614441 0.022196
C28   C     C_R   0.490297 0.129407 0.500030 0.008296
C29   C     C_R   0.431272 0.063846 0.389087 -0.160139
Cu1   Cu    Cu3+1 0.499990 0.499980 0.640670 0.978902
Cu2   Cu    Cu3+1 0.500010 0.500020 0.359330 0.935503
H1    H     H_    0.105035 0.646183 0.356797 0.124001
H2    H     H_    0.532250 0.753214 0.127185 0.149791
H3    H     H_    0.230578 0.270035 0.581396 0.122348
H4    H     H_    0.128306 0.116154 0.722296 0.122095
H5    H     H_    0.926461 0.161260 0.817688 0.146659
H6    H     H_    0.879596 0.644003 0.363295 0.123114
H7    H     H_    0.387208 0.112061 0.301311 0.125924
H8    H     H_    0.388845 0.884910 0.302085 0.124807
H9    H     H_    0.681765 0.898712 0.780892 0.131564
H10   H     H_    0.714525 0.350041 0.977069 0.334360
H11   H     H_    0.740273 0.896603 0.599241 0.139426
H12   H     H_    0.671777 0.113959 0.782325 0.197606
H13   H     H_    0.734568 0.117969 0.601843 0.141381
H14   H     H_    0.356110 0.369021 0.122801 0.119127
H15   H     H_    0.356409 0.368527 0.862186 0.126115
H16   H     H_    0.705558 0.717413 0.887820 0.157796
H17   H     H_    0.534506 0.753206 0.878020 0.146911
H18   H     H_    0.703148 0.721506 0.137377 0.132860
N1    N     N_R   0.500790 0.500930 0.147930 -0.240434
N2    N     N_R   0.500790 0.500890 0.852020 -0.230041
O1    O     O_R   0.500000 0.319640 0.618810 -0.499291
O2    O     O_R   0.751494 0.306683 0.894436 -0.737733
O3    O     O_R   0.500010 0.319680 0.381230 -0.508071
O4    O     O_R   0.319640 0.499980 0.618820 -0.503850
O5    O     O_R   0.319650 0.500020 0.381230 -0.508992
O6    O     O_R   0.499990 0.680320 0.618770 -0.500988
O7    O     O_R   0.500000 0.680360 0.381190 -0.513354
O8    O     O_R   0.680350 0.499980 0.618770 -0.463683
O9    O     O_R   0.680360 0.500020 0.381180 -0.498730
O10   O     O_2   0.833742 0.493929 0.846086 -0.528054

loop_
_geom_bond_atom_site_label_1
_geom_bond_atom_site_label_2
_ccdc_geom_bond_type
C29   H7    S    
C12   C17   A    
C13   H17   S    
Cu1   N2    S    
C24   H1    S    
C24   C25   A    
C9    H14   S    
C6    C7    S    
C7    H12   S    
Cu2   O5    S    
C1    C28   S    
C15   O6    A    
C9    C10   A    
C19   C20   A    
C1    O3    A    
Cu1   O8    S    
C14   H2    S    
C17   C18   A    
C7    C27   S    
C4    O4    A    
C13   C14   S    
C4    O5    A    
C22   O10   D    
C11   C13   S    
C12   C23   A    
H10   O2    S    
Cu1   Cu2   S    
C2    C29   A    
C16   O9    A    
C10   N2    A    
C12   C21   A    
C18   H4    S    
C28   C29   A    
C15   O7    A    
C21   C26   A    
C20   C22   S    
C2    C3    A    
C22   O2    S    
C19   H5    S    
C8    C11   A    
Cu2   O3    S    
C16   C26   S    
C5    C6    S    
C1    O1    A    
C6    H9    S    
C14   H18   S    
C11   N2    A    
C17   H3    S    
C23   C24   A    
Cu1   O6    S    
C8    N1    A    
C10   H15   S    
C3    C15   S    
C20   C21   A    
Cu2   O7    S    
C18   C19   A    
Cu1   O4    S    
C27   C28   A    
C13   H16   S    
C4    C23   S    
Cu1   O1    S    
C8    C14   S    
Cu2   N1    S    
Cu2   O9    S    
C25   H6    S    
C25   C26   A    
C5    C27   A    
C6    H11   S    
C2    H8    S    
C7    H13   S    
C9    N1    A    
C3    C5    A    
C16   O8    A    
