data_str_m2_o4_o25_f0_pcu.sym.252
_audit_creation_date              2012-12-10T19:04:48-0500
_audit_creation_method            fapswitch 2.2
_symmetry_space_group_name_H-M    P1
_symmetry_Int_Tables_number       1
_space_group_crystal_system       triclinic
_cell_length_a                    15.869249
_cell_length_b                    10.868535
_cell_length_c                    9.543241
_cell_angle_alpha                 90.81359
_cell_angle_beta                  88.849772
_cell_angle_gamma                 90.979813
_cell_volume                      1645.24479276

loop_
_atom_site_label
_atom_site_type_symbol
_atom_type_description
_atom_site_fract_x
_atom_site_fract_y
_atom_site_fract_z
_atom_type_partial_charge
C1    C     C_R   0.498083 0.261666 0.498312 0.877506
C2    C     C_3   0.083842 0.500239 0.508010 -0.214231
C3    C     C_3   0.972516 0.613607 0.521237 0.228581
C4    C     C_3   0.916890 0.497721 0.496661 -0.246806
C5    C     C_3   0.032583 0.571183 0.401474 0.260274
C6    C     C_3   0.977050 0.455320 0.377621 0.241363
C7    C     C_1   0.175241 0.500145 0.508372 0.180314
C8    C     C_1   0.825228 0.496805 0.494895 0.254997
C9    C     C_R   0.487665 0.063407 0.620648 -0.107761
C10   C     C_R   0.491744 0.126983 0.494084 -0.178215
C11   C     C_R   0.487912 0.055680 0.367135 0.224786
C12   C     C_R   0.339983 0.500364 0.501367 0.867693
C13   C     C_R   0.464472 0.930397 0.376193 0.328742
C14   C     C_R   0.478596 0.868245 0.502415 -0.150463
C15   C     C_R   0.490370 0.936902 0.625422 -0.122834
C16   C     C_3   0.442857 0.935381 0.764259 0.234132
C17   C     C_3   0.434412 0.075874 0.751837 0.240150
C18   C     C_R   0.571930 0.530543 0.071454 0.271446
C19   C     C_R   0.431403 0.460735 0.075845 -0.004091
C20   C     C_R   0.431632 0.459907 0.927417 0.056706
C21   C     C_R   0.571155 0.531390 0.923960 0.205094
C22   C     C_3   0.618008 0.650370 0.914282 -0.468426
C23   C     C_R   0.491434 0.736265 0.501143 0.875279
C24   C     C_3   0.620313 0.651032 0.073566 0.087298
C25   C     C_R   0.660115 0.498713 0.498839 0.830661
C26   C     C_3   0.968751 0.427412 0.602967 0.326426
C27   C     C_3   0.029008 0.383074 0.483696 -0.316472
C28   C     C_1   0.250594 0.500201 0.505297 -0.066490
C29   C     C_1   0.749741 0.497084 0.496245 0.013725
C30   C     C_3   0.024393 0.542894 0.627697 0.253890
Cu1   Cu    Cu3+1 0.500000 0.499980 0.640670 1.053993
Cu2   Cu    Cu3+1 0.500000 0.500020 0.359330 1.066794
H1    H     H_    0.375457 0.429952 0.874084 0.199874
N1    N     N_R   0.500530 0.500930 0.147930 -0.219393
N2    N     N_R   0.500530 0.500890 0.852020 -0.194504
O1    O     O_R   0.500000 0.319640 0.618810 -0.559079
O2    O     O_R   0.500010 0.319680 0.381230 -0.548595
O3    O     O_R   0.379070 0.499970 0.618770 -0.534148
O4    O     O_R   0.379080 0.500010 0.381190 -0.590809
O5    O     O_R   0.499990 0.680320 0.618770 -0.560508
O6    O     O_R   0.500000 0.680360 0.381190 -0.570870
O7    O     O_R   0.620920 0.499990 0.618810 -0.595038
O8    O     O_R   0.620930 0.500030 0.381230 -0.524961
H2    H     H_    0.052761 0.288172 0.469027 0.239800
H3    H     H_    0.486142 0.912145 0.849720 0.128188
S1    S     S_3+6 0.330458 0.134781 0.721272 0.076426
O9    O     O_2   0.337124 0.268321 0.686489 -0.343257
O10   O     O_2   0.289176 0.068199 0.601263 -0.189307
O11   O     O_3   0.270093 0.122260 0.867267 -0.425576
H4    H     H_    0.214962 0.156326 0.842262 0.396898
H5    H     H_    0.468011 0.127821 0.835518 0.148108
H6    H     H_    0.375185 0.430447 0.131921 0.167296
H7    H     H_    0.679792 0.638863 0.859289 0.254508
H8    H     H_    0.578908 0.724795 0.872451 0.202580
S2    S     S_3+6 0.725156 0.639624 0.138369 0.100442
O12   O     O_2   0.747689 0.506668 0.151657 -0.177676
O13   O     O_2   0.787826 0.701661 0.041235 -0.178071
O14   O     O_3   0.729380 0.709475 0.296341 -0.503371
H9    H     H_    0.712501 0.795338 0.280072 0.365238
H10   H     H_    0.585516 0.727777 0.123715 0.174714
S3    S     S_3+6 0.924574 0.328727 0.733703 0.110423
O15   O     O_2   0.869402 0.402024 0.832364 -0.170647
O16   O     O_2   0.872756 0.229288 0.663947 -0.264909
O17   O     O_3   0.002612 0.264864 0.822632 -0.451628
H11   H     H_    0.974023 0.204494 0.885032 0.409474
S4    S     S_3+6 0.947493 0.390436 0.212960 0.162765
O18   O     O_2   0.872053 0.306849 0.233861 -0.186412
O19   O     O_2   0.926022 0.490875 0.114234 -0.083422
O20   O     O_3   0.027494 0.308141 0.144703 -0.465672
H12   H     H_    0.076479 0.365727 0.142548 0.380223
S5    S     S_3+6 0.079097 0.669642 0.271917 0.140741
O21   O     O_2   0.131072 0.767770 0.343697 -0.182991
O22   O     O_2   0.134765 0.596056 0.174404 -0.242807
O23   O     O_3   0.003038 0.735592 0.180473 -0.399231
H13   H     H_    0.032451 0.800425 0.125303 0.394497
S6    S     S_3+6 0.932430 0.765145 0.545834 0.106374
O24   O     O_2   0.892647 0.805872 0.413142 -0.173149
O25   O     O_2   0.867280 0.764332 0.662299 -0.272451
O26   O     O_3   0.011771 0.862629 0.587097 -0.441140
H14   H     H_    0.984528 0.942686 0.605766 0.394788
S7    S     S_3+6 0.058155 0.600348 0.793667 0.150172
O27   O     O_2   0.100684 0.500088 0.871012 -0.178704
O28   O     O_2   0.119563 0.705571 0.772579 -0.237754
O29   O     O_3   0.974012 0.648447 0.887708 -0.384259
H15   H     H_    0.974191 0.739051 0.878203 0.390952
S8    S     S_3+6 0.518650 0.112331 0.198499 0.073482
O30   O     O_2   0.594939 0.195593 0.209413 -0.222400
O31   O     O_2   0.541126 0.006988 0.102108 -0.250447
O32   O     O_3   0.439264 0.189394 0.127931 -0.491465
H16   H     H_    0.397365 0.201852 0.204875 0.351710
S9    S     S_3+6 0.391549 0.866752 0.253537 0.123901
O33   O     O_2   0.334538 0.774234 0.325173 -0.250102
O34   O     O_2   0.338258 0.966906 0.197058 -0.169851
O35   O     O_3   0.441893 0.797164 0.118861 -0.529657
H17   H     H_    0.402682 0.731353 0.086778 0.389301
S10   S     S_3+6 0.349700 0.836911 0.772514 0.116809
O36   O     O_2   0.375895 0.710597 0.813240 -0.321397
O37   O     O_2   0.288769 0.882761 0.882805 -0.119036
O38   O     O_3   0.301697 0.826797 0.617305 -0.439355
H18   H     H_    0.263213 0.754494 0.624727 0.390307

loop_
_geom_bond_atom_site_label_1
_geom_bond_atom_site_label_2
_ccdc_geom_bond_type
S4    O19   D    
S2    O12   D    
Cu1   O7    S    
S3    O17   S    
C18   C21   A    
C19   C20   A    
S6    O26   S    
C4    C8    S    
C17   H5    S    
S7    O27   D    
C22   H8    S    
C24   S2    S    
S1    O11   S    
C26   C27   S    
C12   C28   S    
C18   C24   S    
C8    C29   T    
C26   S3    S    
S6    O25   D    
C5    C6    S    
S8    O31   D    
S4    O20   S    
C11   S8    S    
C15   C16   S    
S10   O38   S    
Cu1   O5    S    
Cu2   O4    S    
S3    O16   D    
C2    C7    S    
C20   N2    A    
C19   H6    S    
C6    C27   S    
C16   C17   S    
S10   O37   D    
Cu2   O6    S    
C2    C27   S    
C9    C10   A    
C1    O2    A    
S4    O18   D    
C21   C22   S    
C13   S9    S    
C25   O8    A    
O20   H12   S    
C27   H2    S    
S7    O28   D    
C22   H7    S    
C25   C29   S    
S1    O10   D    
C16   S10   S    
O23   H13   S    
S6    O24   D    
C4    C6    S    
S9    O33   D    
S5    O22   D    
S8    O30   D    
O14   H9    S    
S8    O32   S    
C7    C28   T    
Cu2   N1    S    
C14   C23   S    
C16   H3    S    
C3    C30   S    
S9    O34   D    
O38   H18   S    
C24   H10   S    
S10   O36   D    
O35   H17   S    
Cu2   O2    S    
O29   H15   S    
C3    S6    S    
C18   N1    A    
C20   H1    S    
C9    C17   S    
C26   C30   S    
S2    O13   D    
C22   C24   S    
C2    C5    S    
C3    C4    S    
S7    O29   S    
S1    O9    D    
C14   C15   A    
Cu1   Cu2   S    
C1    C10   S    
C3    C5    S    
C19   N1    A    
C25   O7    A    
S5    O23   S    
C4    C26   S    
C17   S1    S    
C21   N2    A    
C23   O6    A    
Cu1   O3    S    
C2    C30   S    
O17   H11   S    
C12   O4    A    
C9    C15   A    
S5    O21   D    
C5    S5    S    
S9    O35   S    
C11   C13   A    
C30   S7    S    
Cu2   O8    S    
Cu1   N2    S    
C12   O3    A    
S3    O15   D    
C10   C11   A    
O26   H14   S    
C6    S4    S    
O11   H4    S    
S2    O14   S    
Cu1   O1    S    
O32   H16   S    
C13   C14   A    
C23   O5    A    
C1    O1    A    
