data_str_m2_o4_o17_f0_pcu.sym.180
_audit_creation_date              2012-12-10T19:00:45-0500
_audit_creation_method            fapswitch 2.2
_symmetry_space_group_name_H-M    P1
_symmetry_Int_Tables_number       1
_space_group_crystal_system       triclinic
_cell_length_a                    15.02982
_cell_length_b                    10.827585
_cell_length_c                    9.637021
_cell_angle_alpha                 90.427143
_cell_angle_beta                  91.354402
_cell_angle_gamma                 91.207686
_cell_volume                      1567.46049175

loop_
_atom_site_label
_atom_site_type_symbol
_atom_type_description
_atom_site_fract_x
_atom_site_fract_y
_atom_site_fract_z
_atom_type_partial_charge
C1    C     C_R   0.501226 0.262989 0.499443 0.855751
C2    C     C_R   0.907659 0.607585 0.539237 0.125871
C3    C     C_R   0.946228 0.287052 0.416476 -0.239809
C4    C     C_R   0.038762 0.284898 0.421032 -0.091256
C5    C     C_R   0.089491 0.388869 0.467288 -0.005064
C6    C     C_R   0.045530 0.499813 0.496597 -0.045023
C7    C     C_R   0.094625 0.610095 0.525671 -0.017779
C8    C     C_R   0.049339 0.714412 0.573040 -0.122271
C9    C     C_R   0.956885 0.713220 0.579254 -0.244808
C10   C     C_R   0.182554 0.384996 0.487131 0.293213
C11   C     C_R   0.231552 0.498186 0.496249 -0.300760
C12   C     C_R   0.328880 0.497827 0.498709 1.024023
C13   C     C_R   0.187288 0.612145 0.506474 0.262118
C14   C     C_R   0.544630 0.066958 0.607460 0.090404
C15   C     C_R   0.506235 0.130270 0.496641 -0.078571
C16   C     C_R   0.475046 0.063514 0.379578 -0.161920
C17   C     C_R   0.472761 0.935156 0.381999 -0.140892
C18   C     C_R   0.503812 0.871622 0.499418 -0.055983
C19   C     C_R   0.543718 0.939446 0.608765 0.064506
C20   C     C_3   0.525709 0.937119 0.760269 -0.452753
C21   C     C_3   0.528157 0.076931 0.758958 -0.435990
C22   C     C_R   0.573552 0.534755 0.074997 0.199568
C23   C     C_R   0.500638 0.737583 0.500449 0.865816
C24   C     C_R   0.431773 0.444727 0.068487 0.183829
C25   C     C_R   0.428943 0.457045 0.921060 -0.034524
C26   C     C_R   0.577241 0.522169 0.930074 0.137639
C27   C     C_3   0.642437 0.628960 0.922429 -0.105329
C28   C     C_3   0.628965 0.651324 0.078206 -0.097380
C29   C     C_R   0.670638 0.500635 0.501111 0.775387
C30   C     C_R   0.814889 0.606762 0.541506 -0.275252
C31   C     C_R   0.766613 0.500098 0.502436 -0.055876
C32   C     C_R   0.809647 0.394116 0.459045 -0.248288
C33   C     C_R   0.902354 0.392998 0.457938 0.114248
C34   C     C_R   0.951888 0.500166 0.497865 0.113572
Cu1   Cu    Cu3+1 0.500000 0.499980 0.640670 0.977280
Cu2   Cu    Cu3+1 0.500000 0.500020 0.359330 0.961835
H1    H     H_    0.779988 0.688890 0.572166 0.132619
H2    H     H_    0.442204 0.886243 0.295118 0.199854
H3    H     H_    0.458686 0.897591 0.782032 0.241424
H4    H     H_    0.582137 0.899449 0.821116 0.184736
H5    H     H_    0.463163 0.117963 0.782897 0.212014
H6    H     H_    0.586308 0.118034 0.817409 0.189230
H7    H     H_    0.371140 0.424947 0.861637 0.188379
H8    H     H_    0.618702 0.701485 0.850884 0.186147
H9    H     H_    0.690129 0.641826 0.144268 0.151931
H10   H     H_    0.770803 0.312605 0.427589 0.129432
H11   H     H_    0.908977 0.205319 0.381694 0.146717
H12   H     H_    0.069897 0.202189 0.384218 0.210185
H13   H     H_    0.084737 0.796105 0.610949 0.228097
H14   H     H_    0.923885 0.795049 0.615462 0.153274
H15   H     H_    0.447422 0.109946 0.289831 0.179450
N1    N     N_R   0.500570 0.500930 0.147930 -0.209427
N2    N     N_R   0.500570 0.500890 0.852020 -0.219695
O1    O     O_R   0.500000 0.319640 0.618810 -0.561240
O2    O     O_R   0.500010 0.319680 0.381230 -0.615259
O3    O     O_R   0.370250 0.499950 0.618800 -0.547142
O4    O     O_R   0.370260 0.499990 0.381220 -0.589018
O5    O     O_R   0.499990 0.680320 0.618770 -0.581177
O6    O     O_R   0.500000 0.680360 0.381190 -0.580619
O7    O     O_R   0.629740 0.500010 0.618780 -0.601189
O8    O     O_R   0.629750 0.500050 0.381200 -0.591215
C35   C     C_3   0.360266 0.361879 0.129187 -0.341246
C36   C     C_3   0.350049 0.237026 0.053264 -0.869902
H16   H     H_    0.317566 0.247204 0.949578 0.265729
H17   H     H_    0.416034 0.194239 0.041538 0.241258
H18   H     H_    0.307304 0.173313 0.113617 0.290697
H19   H     H_    0.376689 0.337372 0.236045 0.286286
H20   H     H_    0.295561 0.409661 0.126284 0.206379
C37   C     C_3   0.738283 0.588606 0.894474 -0.396810
C38   C     C_3   0.802633 0.699621 0.895437 -0.843352
H21   H     H_    0.781274 0.768037 0.816779 0.240357
H22   H     H_    0.805390 0.744757 0.999321 0.252490
H23   H     H_    0.870415 0.668611 0.870516 0.259457
H24   H     H_    0.761245 0.521160 0.973462 0.202148
H25   H     H_    0.741456 0.541514 0.793124 0.246461
C39   C     C_3   0.581831 0.774317 0.105477 -0.384910
C40   C     C_3   0.484536 0.778734 0.053665 -0.775836
H26   H     H_    0.462495 0.875950 0.053201 0.226591
H27   H     H_    0.476302 0.741365 0.946834 0.248878
H28   H     H_    0.440430 0.724854 0.122347 0.285280
H29   H     H_    0.586348 0.796112 0.217587 0.215060
H30   H     H_    0.620336 0.849479 0.054954 0.189612
S1    S     S_3+6 0.235394 0.240660 0.516481 -0.011223
O9    O     O_2   0.170292 0.146115 0.570142 -0.257707
O10   O     O_2   0.272570 0.194283 0.383153 -0.321890
O11   O     O_3   0.317861 0.257056 0.635925 -0.566483
H31   H     H_    0.331316 0.171765 0.664659 0.374502
S2    S     S_3+6 0.246949 0.754791 0.483219 -0.001517
O12   O     O_2   0.295586 0.789444 0.616307 -0.274610
O13   O     O_2   0.313161 0.739572 0.370611 -0.333436
O14   O     O_3   0.180287 0.870939 0.436155 -0.472480
H32   H     H_    0.155379 0.846352 0.343710 0.347177

loop_
_geom_bond_atom_site_label_1
_geom_bond_atom_site_label_2
_ccdc_geom_bond_type
C24   N1    A    
C23   O5    A    
C36   H17   S    
Cu1   N2    S    
C19   C20   S    
C16   H15   S    
Cu2   O6    S    
C25   H7    S    
C7    C8    A    
C40   H26   S    
C23   O6    A    
C26   C27   S    
C35   H19   S    
Cu1   O5    S    
C14   C21   S    
C25   N2    A    
C30   C31   A    
C20   H4    S    
C3    C33   A    
C15   C16   A    
C10   S1    S    
C18   C19   A    
C27   H8    S    
S1    O9    D    
C8    C9    A    
C29   O7    A    
C38   H21   S    
C1    C15   S    
Cu2   N1    S    
S2    O12   D    
C2    C34   A    
C36   H18   S    
C22   C28   S    
Cu1   O1    S    
C17   C18   A    
C40   H27   S    
C29   O8    A    
C28   H9    S    
C18   C23   S    
C39   C40   S    
Cu2   O4    S    
C39   H30   S    
O14   H32   S    
C20   H3    S    
O11   H31   S    
C16   C17   A    
C6    C34   A    
C30   H1    S    
Cu1   O7    S    
Cu1   Cu2   S    
C1    O1    A    
C35   C36   S    
C31   C32   A    
S2    O14   S    
C38   H23   S    
C33   C34   A    
C37   H24   S    
C24   C25   A    
C12   O3    A    
C21   H5    S    
C12   O4    A    
S1    O10   D    
S2    O13   D    
C3    C4    A    
C28   C39   S    
C26   N2    A    
C22   N1    A    
C4    H12   S    
C40   H28   S    
C24   C35   S    
C21   H6    S    
Cu1   O3    S    
C32   H10   S    
C14   C19   A    
C9    H14   S    
C4    C5    A    
C27   C37   S    
C39   H29   S    
C11   C12   S    
C6    C7    A    
C35   H20   S    
C2    C30   A    
C32   C33   A    
C1    O2    A    
C5    C10   A    
C29   C31   S    
Cu2   O2    S    
C11   C13   A    
C5    C6    A    
C13   S2    S    
C3    H11   S    
C37   H25   S    
C17   H2    S    
C37   C38   S    
C10   C11   A    
C36   H16   S    
C7    C13   A    
S1    O11   S    
C20   C21   S    
C22   C26   A    
C27   C28   S    
C14   C15   A    
C38   H22   S    
C2    C9    A    
C8    H13   S    
Cu2   O8    S    
