data_str_m2_o1_o9_f0_pcu.sym.17
_audit_creation_date              2012-10-26T20:08:10-0400
_audit_creation_method            fapswitch 2.2
_symmetry_space_group_name_H-M    P1
_symmetry_Int_Tables_number       1
_space_group_crystal_system       triclinic
_cell_length_a                    10.857178
_cell_length_b                    10.890903
_cell_length_c                    9.497466
_cell_angle_alpha                 89.157604
_cell_angle_beta                  90.803229
_cell_angle_gamma                 89.662007
_cell_volume                      1122.77020433

loop_
_atom_site_label
_atom_site_type_symbol
_atom_type_description
_atom_site_fract_x
_atom_site_fract_y
_atom_site_fract_z
_atom_type_partial_charge
Br1   Br    Br    0.259640 0.800639 0.844408 -0.488339
Br2   Br    Br    0.740358 0.199363 0.155592 -0.488340
Br3   Br    Br    0.521224 0.876016 0.182799 -0.465241
Br4   Br    Br    0.478772 0.123983 0.817200 -0.465243
C1    C     C_R   0.498207 0.262006 0.501528 0.568582
C2    C     C_R   0.493900 0.058462 0.630969 0.145690
C3    C     C_R   0.502955 0.871824 0.495678 -0.016100
C4    C     C_R   0.497044 0.128176 0.504322 -0.016100
C5    C     C_R   0.417723 0.430444 0.074350 0.054179
C6    C     C_R   0.582277 0.569556 0.925650 0.054179
C7    C     C_R   0.417442 0.430870 0.925407 0.060383
C8    C     C_R   0.582557 0.569130 0.074593 0.060384
C9    C     C_R   0.262153 0.502816 0.498898 0.553419
C10   C     C_R   0.737847 0.497184 0.501102 0.553418
C11   C     C_R   0.204284 0.784302 0.139520 -0.040653
C12   C     C_R   0.501793 0.737994 0.498472 0.568582
C13   C     C_R   0.795711 0.215701 0.860479 -0.040653
C14   C     C_R   0.160460 0.726925 0.261428 -0.095454
C15   C     C_R   0.839536 0.273077 0.738572 -0.095452
C16   C     C_R   0.114834 0.606821 0.255655 0.040001
C17   C     C_R   0.885166 0.393179 0.744346 0.040001
C18   C     C_R   0.115616 0.544028 0.127819 -0.144300
C19   C     C_R   0.884388 0.455972 0.872182 -0.144302
C20   C     C_R   0.160289 0.601320 0.006504 -0.111391
C21   C     C_R   0.839714 0.398680 0.993498 -0.111391
C22   C     C_R   0.203851 0.721616 0.011969 0.208751
C23   C     C_R   0.871699 0.496011 0.502616 0.011628
C24   C     C_R   0.796148 0.278386 0.988032 0.208750
C25   C     C_R   0.931393 0.544486 0.384852 -0.134441
C26   C     C_R   0.068607 0.455515 0.615148 -0.134441
C27   C     C_R   0.128301 0.503988 0.497384 0.011629
C28   C     C_R   0.941027 0.450594 0.619068 -0.020361
C29   C     C_R   0.058973 0.549406 0.380932 -0.020361
C30   C     C_R   0.501399 0.068166 0.375146 -0.102682
C31   C     C_R   0.498599 0.931834 0.624854 -0.102682
C32   C     C_R   0.506098 0.941538 0.369031 0.145691
Cu1   Cu    Cu3+1 0.500000 0.500020 0.640660 1.011487
Cu2   Cu    Cu3+1 0.500000 0.499980 0.359340 1.011489
H1    H     H_    0.350901 0.375960 0.869100 0.137476
H2    H     H_    0.839802 0.447429 0.091871 0.126253
H3    H     H_    0.878399 0.582041 0.296456 0.128738
H4    H     H_    0.121601 0.417960 0.703544 0.128738
H5    H     H_    0.501988 0.119829 0.276916 0.215960
H6    H     H_    0.498010 0.880171 0.723084 0.215960
H7    H     H_    0.351821 0.374776 0.130463 0.121243
H8    H     H_    0.648179 0.625224 0.869537 0.121243
H9    H     H_    0.649099 0.624040 0.130900 0.137475
H10   H     H_    0.237085 0.877820 0.143922 0.176194
H11   H     H_    0.762907 0.122184 0.856077 0.176196
H12   H     H_    0.159754 0.776645 0.359362 0.128611
H13   H     H_    0.840239 0.223358 0.640637 0.128611
H14   H     H_    0.081308 0.451061 0.122250 0.122923
H15   H     H_    0.918698 0.548938 0.877751 0.122924
H16   H     H_    0.160203 0.552570 0.908131 0.126252
N1    N     N_R   0.500030 0.500030 0.852070 -0.220661
N2    N     N_R   0.499970 0.499970 0.147930 -0.220660
O1    O     O_R   0.499990 0.319660 0.618740 -0.461234
O2    O     O_R   0.500010 0.680340 0.381260 -0.461234
O3    O     O_R   0.499990 0.319630 0.381170 -0.499199
O4    O     O_R   0.500010 0.680370 0.618830 -0.499200
O5    O     O_R   0.319650 0.500020 0.618780 -0.506032
O6    O     O_R   0.680350 0.499980 0.381220 -0.506031
O7    O     O_R   0.319640 0.500000 0.381210 -0.505432
O8    O     O_R   0.680360 0.500000 0.618790 -0.505433

loop_
_geom_bond_atom_site_label_1
_geom_bond_atom_site_label_2
_ccdc_geom_bond_type
C6    H8    S    
C1    C4    S    
Cu1   O5    S    
C27   C29   A    
C5    H7    S    
Cu1   Cu2   S    
C31   H6    S    
C15   H13   S    
C10   C23   S    
C11   C14   A    
C3    C32   A    
C30   C32   A    
C9    O7    A    
C1    O1    A    
C10   O8    A    
C17   C19   A    
Cu2   N2    S    
C5    N2    A    
C12   O2    A    
C21   C24   A    
C26   C28   A    
C6    N1    A    
C5    C7    A    
C9    O5    A    
C8    N2    A    
C6    C8    A    
Br3   C32   S    
C8    H9    S    
C2    C4    A    
C16   C29   S    
C11   H10   S    
C18   H14   S    
C3    C12   S    
C13   C15   A    
C16   C18   A    
C19   H15   S    
Cu2   O6    S    
C14   C16   A    
C19   C21   A    
C21   H2    S    
C26   C27   A    
C7    H1    S    
C17   C28   S    
C18   C20   A    
Br1   C22   S    
Cu1   O4    S    
C23   C25   A    
C1    O3    A    
C20   H16   S    
Cu2   O3    S    
Cu1   N1    S    
C25   C29   A    
Cu1   O8    S    
C7    N1    A    
C2    C31   A    
C14   H12   S    
Br4   C2    S    
Cu2   O7    S    
C12   O4    A    
C13   H11   S    
C26   H4    S    
C11   C22   A    
Br2   C24   S    
C25   H3    S    
C23   C28   A    
C4    C30   A    
C13   C24   A    
C3    C31   A    
Cu2   O2    S    
C9    C27   S    
Cu1   O1    S    
C30   H5    S    
C20   C22   A    
C15   C17   A    
C10   O6    A    
