data_str_m2_o1_o13_f0_pcu.sym.63
_audit_creation_date              2012-10-26T21:20:11-0400
_audit_creation_method            fapswitch 2.2
_symmetry_space_group_name_H-M    P1
_symmetry_Int_Tables_number       1
_space_group_crystal_system       triclinic
_cell_length_a                    13.061279
_cell_length_b                    10.826734
_cell_length_c                    9.590375
_cell_angle_alpha                 88.748761
_cell_angle_beta                  97.023821
_cell_angle_gamma                 91.446076
_cell_volume                      1345.3378464

loop_
_atom_site_label
_atom_site_type_symbol
_atom_type_description
_atom_site_fract_x
_atom_site_fract_y
_atom_site_fract_z
_atom_type_partial_charge
C1    C     C_R   0.501297 0.262426 0.502020 0.593255
C2    C     C_R   0.699453 0.497359 0.527271 0.629222
C3    C     C_R   0.812952 0.497915 0.544779 0.056816
C4    C     C_R   0.187375 0.505416 0.454260 0.061929
C5    C     C_R   0.025353 0.427128 0.335969 -0.065928
C6    C     C_R   0.974387 0.581492 0.660296 -0.088052
C7    C     C_R   0.132263 0.439470 0.343318 0.211960
C8    C     C_R   0.867511 0.566604 0.653940 0.198529
C9    C     C_R   0.133627 0.567915 0.550261 0.150849
C10   C     C_R   0.867280 0.437247 0.448062 0.215451
C11   C     C_R   0.027303 0.540134 0.552248 -0.046385
C12   C     C_R   0.497669 0.737478 0.497984 0.582733
C13   C     C_R   0.973003 0.467191 0.445109 -0.031677
C14   C     C_R   0.448978 0.068377 0.388960 -0.154233
C15   C     C_R   0.548732 0.931357 0.611764 -0.115227
C16   C     C_R   0.444283 0.940387 0.382693 0.189213
C17   C     C_R   0.552844 0.059265 0.618631 0.247355
C18   C     C_R   0.496221 0.871428 0.495416 -0.015563
C19   C     C_R   0.501749 0.128363 0.505175 -0.029777
C20   C     C_R   0.430690 0.428123 0.067262 0.414523
C21   C     C_R   0.569358 0.571797 0.932783 0.410623
C22   C     C_R   0.429158 0.429148 0.918143 0.343006
C23   C     C_R   0.571025 0.570554 0.081922 0.350168
C24   C     C_R   0.300669 0.503168 0.472600 0.613991
Cu1   Cu    Cu3+1 0.500000 0.500020 0.640660 1.167559
Cu2   Cu    Cu3+1 0.500000 0.499980 0.359340 1.175525
H1    H     H_    0.984280 0.383919 0.244571 0.192192
H2    H     H_    0.729519 0.283044 0.807925 0.381932
H3    H     H_    0.325533 0.296054 0.067335 0.371775
H4    H     H_    0.674172 0.704207 0.932782 0.370447
H5    H     H_    0.375297 0.333770 0.756952 0.380984
H6    H     H_    0.624747 0.666434 0.242676 0.373893
H7    H     H_    0.014864 0.626905 0.750507 0.170787
H8    H     H_    0.409433 0.122309 0.303268 0.203380
H9    H     H_    0.588295 0.877365 0.697373 0.202830
H10   H     H_    0.685924 0.177577 0.358533 0.368833
H11   H     H_    0.193616 0.569396 0.838178 0.339420
H12   H     H_    0.864116 0.666949 0.820100 0.349905
H13   H     H_    0.134566 0.341192 0.175264 0.344661
H14   H     H_    0.492492 0.888564 0.103677 0.356165
N1    N     N_R   0.500030 0.500030 0.852080 -0.247990
N2    N     N_R   0.499970 0.499970 0.147920 -0.242371
O1    O     O_R   0.499990 0.319660 0.618740 -0.496888
O2    O     O_2   0.883398 0.215220 0.327757 -0.253500
O3    O     O_3   0.709913 0.248023 0.419234 -0.483367
O4    O     O_2   0.283179 0.746402 0.584848 -0.218788
O5    O     O_2   0.122411 0.790588 0.673601 -0.222010
O6    O     O_3   0.244325 0.633357 0.813842 -0.437499
O7    O     O_3   0.814900 0.620683 0.752222 -0.631084
O8    O     O_3   0.184311 0.385366 0.244427 -0.625216
O9    O     O_2   0.302752 0.768974 0.282345 -0.187574
O10   O     O_2   0.301295 0.967045 0.155615 -0.224434
O11   O     O_3   0.448387 0.817076 0.126775 -0.480494
O12   O     O_R   0.500010 0.680340 0.381260 -0.506062
O13   O     O_2   0.551829 0.174973 0.862195 -0.271546
O14   O     O_2   0.691629 0.031168 0.849510 -0.247726
O15   O     O_3   0.701426 0.242404 0.719380 -0.462735
O16   O     O_3   0.365141 0.352423 0.134812 -0.602555
O17   O     O_3   0.634879 0.647570 0.865304 -0.602181
O18   O     O_3   0.351445 0.361088 0.843541 -0.689052
O19   O     O_3   0.648939 0.638197 0.156657 -0.681043
O20   O     O_R   0.499990 0.319630 0.381170 -0.466423
O21   O     O_R   0.500010 0.680370 0.618830 -0.447831
O22   O     O_R   0.349000 0.499990 0.599490 -0.496879
O23   O     O_R   0.651000 0.500010 0.400510 -0.485923
O24   O     O_R   0.348990 0.499960 0.361920 -0.394953
O25   O     O_R   0.651010 0.500040 0.638080 -0.414314
O26   O     O_2   0.766400 0.364599 0.200816 -0.250783
S1    S     S_3+6 0.807088 0.314187 0.343589 0.052528
S2    S     S_3+6 0.196327 0.689714 0.655015 0.079575
S3    S     S_3+6 0.369540 0.872876 0.235110 0.096558
S4    S     S_3+6 0.625130 0.126183 0.768534 0.069489

loop_
_geom_bond_atom_site_label_1
_geom_bond_atom_site_label_2
_ccdc_geom_bond_type
H5    O18   S    
C14   H8    S    
C15   C18   A    
C20   N2    A    
C4    C9    A    
O5    S2    D    
C11   C13   A    
C5    C13   A    
O13   S4    D    
Cu1   O25   S    
C6    H7    S    
C24   O24   A    
C2    O23   A    
C1    O20   A    
Cu1   O1    S    
C12   C18   S    
C2    C3    S    
Cu2   O20   S    
O2    S1    D    
C24   O22   A    
O10   S3    D    
H2    O15   S    
H4    O17   S    
H11   O6    S    
C9    C11   A    
C16   S3    S    
O9    S3    D    
C4    C7    A    
C21   N1    A    
Cu2   O12   S    
C15   H9    S    
Cu1   O22   S    
C17   C19   A    
C20   C22   A    
H6    O19   S    
C21   O17   S    
C5    C7    A    
C21   C23   A    
O15   S4    S    
C22   O18   S    
C4    C24   S    
C14   C16   A    
C3    C10   A    
O4    S2    D    
C22   N1    A    
C1    C19   S    
O3    S1    S    
C9    S2    S    
Cu2   O24   S    
C10   S1    S    
H10   O3    S    
H13   O8    S    
H12   O7    S    
H3    O16   S    
Cu2   N2    S    
C17   S4    S    
C16   C18   A    
H14   O11   S    
C3    C8    A    
C23   O19   S    
Cu1   N1    S    
C6    C11   A    
C15   C17   A    
C12   O21   A    
C14   C19   A    
Cu1   O21   S    
C6    C8    A    
O14   S4    D    
Cu1   Cu2   S    
C5    H1    S    
Cu2   O23   S    
C20   O16   S    
C8    O7    S    
C1    O1    A    
C12   O12   A    
C23   N2    A    
C7    O8    S    
O6    S2    S    
O26   S1    D    
C2    O25   A    
C10   C13   A    
O11   S3    S    
