data_str_m2_o1_o17_f0_pcu.sym.217
_audit_creation_date              2012-12-10T17:57:53-0500
_audit_creation_method            fapswitch 2.2
_symmetry_space_group_name_H-M    P1
_symmetry_Int_Tables_number       1
_space_group_crystal_system       triclinic
_cell_length_a                    10.756199
_cell_length_b                    9.648725
_cell_length_c                    15.051583
_cell_angle_alpha                 89.511258
_cell_angle_beta                  92.43785
_cell_angle_gamma                 89.36755
_cell_volume                      1560.53537329

loop_
_atom_site_label
_atom_site_type_symbol
_atom_type_description
_atom_site_fract_x
_atom_site_fract_y
_atom_site_fract_z
_atom_type_partial_charge
C1    C     C_R   0.262766 0.500591 0.499570 0.952305
C2    C     C_R   0.737234 0.499409 0.500430 0.952311
C3    C     C_R   0.353957 0.694517 0.045935 0.383714
C4    C     C_R   0.645942 0.305418 0.954067 0.383719
C5    C     C_R   0.070775 0.440173 0.572087 0.272374
C6    C     C_R   0.929225 0.559827 0.427913 0.272372
C7    C     C_R   0.939910 0.442545 0.573252 0.254594
C8    C     C_R   0.060090 0.557454 0.426748 0.254591
C9    C     C_R   0.871345 0.498248 0.499812 -0.149080
C10   C     C_R   0.128655 0.501752 0.500188 -0.149078
C11   C     C_R   0.426457 0.076603 0.439968 0.074253
C12   C     C_R   0.573544 0.923397 0.560031 0.074253
C13   C     C_R   0.571339 0.071781 0.561822 0.044220
C14   C     C_R   0.428662 0.928219 0.438177 0.044221
C15   C     C_R   0.502040 0.500363 0.329303 0.804407
C16   C     C_R   0.497957 0.499637 0.670697 0.804413
C17   C     C_R   0.572101 0.410509 0.815294 -0.181334
C18   C     C_R   0.427855 0.589469 0.184709 -0.181311
C19   C     C_R   0.492173 0.499287 0.767094 -0.175361
C20   C     C_R   0.507806 0.500709 0.232906 -0.175373
C21   C     C_R   0.410210 0.588527 0.810518 0.376129
C22   C     C_R   0.589758 0.411464 0.189476 0.376092
C23   C     C_R   0.419393 0.598216 0.904690 -0.014666
C24   C     C_R   0.580539 0.401748 0.095309 -0.014726
C25   C     C_R   0.498396 0.501568 0.953196 -0.059773
C26   C     C_R   0.501537 0.498397 0.046803 -0.059773
C27   C     C_R   0.573115 0.406403 0.907776 0.064357
C28   C     C_R   0.426819 0.593561 0.092225 0.064409
C29   C     C_R   0.348974 0.697281 0.951985 -0.125858
C30   C     C_R   0.650919 0.302648 0.048016 -0.125800
Cu1   Cu    Cu3+1 0.500000 0.640660 0.500000 0.992384
Cu2   Cu    Cu3+1 0.500000 0.359340 0.500000 0.992378
H1    H     H_    0.634205 0.344312 0.779525 0.239188
H2    H     H_    0.365754 0.655663 0.220482 0.239191
N1    N     N_R   0.500000 0.852070 0.500000 -0.249356
N2    N     N_R   0.500000 0.147930 0.500000 -0.249356
O1    O     O_R   0.319640 0.618740 0.499990 -0.617758
O2    O     O_R   0.680360 0.381260 0.500010 -0.617755
O3    O     O_R   0.680360 0.618740 0.500010 -0.537147
O4    O     O_R   0.319640 0.381260 0.499990 -0.537138
O5    O     O_R   0.499970 0.618800 0.370260 -0.583770
O6    O     O_R   0.500030 0.381200 0.629740 -0.583786
O7    O     O_R   0.500030 0.618800 0.629740 -0.612408
O8    O     O_R   0.499970 0.381200 0.370260 -0.612419
O9    O     O_3   0.317668 0.661028 0.762625 -0.727309
H3    H     H_    0.296183 0.612199 0.706549 0.354004
O10   O     O_3   0.682336 0.338998 0.237357 -0.727297
H4    H     H_    0.703815 0.387826 0.293434 0.354009
C31   C     C_2   0.272441 0.806693 0.905165 0.484986
H5    H     H_    0.312313 0.869733 0.853773 0.113209
O11   O     O_2   0.164022 0.826174 0.923249 -0.468688
C32   C     C_2   0.727373 0.193172 0.094840 0.485008
H6    H     H_    0.687480 0.130239 0.146273 0.113220
O12   O     O_2   0.835747 0.173513 0.076712 -0.468698
O13   O     O_3   0.290716 0.791369 0.094900 -0.661575
H7    H     H_    0.287526 0.881200 0.062596 0.351600
O14   O     O_3   0.709149 0.208536 0.905106 -0.661496
H8    H     H_    0.712188 0.118680 0.937379 0.351600
O15   O     O_3   0.144472 0.378639 0.639167 -0.717652
H9    H     H_    0.097377 0.302749 0.666323 0.359963
O16   O     O_3   0.855528 0.621362 0.360833 -0.717642
H10   H     H_    0.902624 0.697253 0.333678 0.359970
O17   O     O_3   0.876574 0.398746 0.646189 -0.749078
H11   H     H_    0.930805 0.409139 0.700476 0.361840
O18   O     O_3   0.123426 0.601253 0.353810 -0.749081
H12   H     H_    0.069194 0.590861 0.299523 0.361843
C33   C     C_2   0.337075 0.153231 0.380357 0.534385
H13   H     H_    0.366677 0.197443 0.318442 0.087981
O19   O     O_2   0.227303 0.159209 0.397630 -0.522246
C34   C     C_2   0.662929 0.846769 0.619639 0.534405
H14   H     H_    0.633330 0.802548 0.681553 0.088003
O20   O     O_2   0.772702 0.840799 0.602366 -0.522242
C35   C     C_2   0.643342 0.142315 0.633947 0.427776
H15   H     H_    0.694008 0.235029 0.621587 0.168140
O21   O     O_2   0.645605 0.096802 0.709968 -0.548840
C36   C     C_2   0.356661 0.857684 0.366052 0.427777
H16   H     H_    0.305988 0.764976 0.378412 0.168137
O22   O     O_2   0.354410 0.903190 0.290030 -0.548863

loop_
_geom_bond_atom_site_label_1
_geom_bond_atom_site_label_2
_ccdc_geom_bond_type
O13   H7    S    
C16   O6    A    
C35   H15   S    
C6    C9    A    
C29   C31   S    
O9    H3    S    
Cu1   O7    S    
C23   C29   A    
C6    O16   S    
C11   N2    A    
C19   C21   A    
C24   C26   A    
C15   O8    A    
C11   C14   A    
C3    C29   A    
C30   C32   S    
C1    O4    A    
C3    O13   S    
C2    O3    A    
Cu1   Cu2   S    
C11   C33   S    
C31   O11   D    
C4    O14   S    
C34   H14   S    
Cu2   O2    S    
C1    O1    A    
C23   C25   A    
C22   O10   S    
O15   H9    S    
C35   O21   D    
C17   H1    S    
C32   O12   D    
C21   O9    S    
C15   C20   S    
C5    O15   S    
C36   O22   D    
C33   H13   S    
C17   C27   A    
C18   C28   A    
C36   H16   S    
C15   O5    A    
C13   N2    A    
C14   N1    A    
C5    C7    A    
C6    C8    A    
C25   C26   A    
Cu1   O1    S    
C33   O19   D    
C14   C36   S    
C2    O2    A    
O10   H4    S    
Cu2   O8    S    
C12   N1    A    
C18   H2    S    
C16   O7    A    
C7    O17   S    
C20   C22   A    
O18   H12   S    
C21   C23   A    
C22   C24   A    
Cu2   N2    S    
C4    C27   A    
C32   H6    S    
C7    C9    A    
C12   C34   S    
C3    C28   A    
Cu1   O5    S    
C1    C10   S    
C13   C35   S    
C25   C27   A    
C26   C28   A    
C5    C10   A    
O14   H8    S    
C16   C19   S    
Cu1   N1    S    
C17   C19   A    
Cu1   O3    S    
C18   C20   A    
Cu2   O4    S    
O16   H10   S    
C24   C30   A    
O17   H11   S    
C8    O18   S    
C12   C13   A    
C8    C10   A    
C31   H5    S    
Cu2   O6    S    
C34   O20   D    
C2    C9    S    
C4    C30   A    
