data_str_m2_o1_o9_f0_pcu.sym.200
_audit_creation_date              2012-12-10T18:05:44-0500
_audit_creation_method            fapswitch 2.2
_symmetry_space_group_name_H-M    P1
_symmetry_Int_Tables_number       1
_space_group_crystal_system       triclinic
_cell_length_a                    10.842865
_cell_length_b                    10.826118
_cell_length_c                    9.540705
_cell_angle_alpha                 90.609153
_cell_angle_beta                  90.600504
_cell_angle_gamma                 90.722468
_cell_volume                      1119.7310677

loop_
_atom_site_label
_atom_site_type_symbol
_atom_type_description
_atom_site_fract_x
_atom_site_fract_y
_atom_site_fract_z
_atom_type_partial_charge
C1    C     C_R   0.499470 0.262139 0.499526 0.814551
C2    C     C_R   0.500528 0.737861 0.500474 0.814551
C3    C     C_R   0.871596 0.495188 0.501709 -0.062061
C4    C     C_R   0.128404 0.504815 0.498293 -0.062061
C5    C     C_R   0.939376 0.448233 0.616090 0.029017
C6    C     C_R   0.060624 0.551773 0.383914 0.029010
C7    C     C_R   0.495404 0.062392 0.372450 -0.080404
C8    C     C_R   0.504588 0.937608 0.627549 -0.080402
C9    C     C_R   0.497015 0.934713 0.372933 -0.194699
C10   C     C_R   0.502974 0.065287 0.627066 -0.194697
C11   C     C_R   0.500893 0.871750 0.500542 -0.048904
C12   C     C_R   0.499099 0.128249 0.499457 -0.048905
C13   C     C_R   0.424391 0.420955 0.070892 0.504986
C14   C     C_R   0.575611 0.579044 0.929108 0.504984
C15   C     C_R   0.424814 0.421413 0.922687 -0.133256
C16   C     C_R   0.575187 0.578586 0.077313 -0.133235
C17   C     C_R   0.262340 0.502850 0.499278 0.813609
C18   C     C_R   0.737660 0.497151 0.500723 0.813608
C19   C     C_R   0.236674 0.780890 0.162547 -0.149516
C20   C     C_R   0.763307 0.219133 0.837464 -0.149513
C21   C     C_R   0.181177 0.725460 0.278080 -0.187715
C22   C     C_R   0.818802 0.274560 0.721928 -0.187686
C23   C     C_R   0.119355 0.611324 0.262278 0.127354
C24   C     C_R   0.880646 0.388686 0.737730 0.127361
C25   C     C_R   0.113681 0.553618 0.129976 -0.168046
C26   C     C_R   0.886342 0.446385 0.870037 -0.168051
C27   C     C_R   0.170125 0.608742 0.015002 -0.196625
C28   C     C_R   0.829899 0.391265 0.985014 -0.196609
C29   C     C_R   0.231532 0.722360 0.031128 0.445125
C30   C     C_R   0.768471 0.277656 0.968887 0.445116
C31   C     C_R   0.932778 0.545409 0.386616 -0.220958
C32   C     C_R   0.067222 0.454596 0.613387 -0.220958
Cu1   Cu    Cu3+1 0.500000 0.500020 0.640660 1.026574
Cu2   Cu    Cu3+1 0.500000 0.499980 0.359340 1.026582
H1    H     H_    0.283254 0.869339 0.175104 0.168785
H2    H     H_    0.716712 0.130690 0.824907 0.168777
H3    H     H_    0.186243 0.771226 0.379536 0.148141
H4    H     H_    0.813718 0.228799 0.620468 0.148126
H5    H     H_    0.067655 0.464919 0.116716 0.175493
H6    H     H_    0.932384 0.535077 0.883298 0.175485
H7    H     H_    0.166667 0.562853 0.913675 0.161469
H8    H     H_    0.833381 0.437149 0.086346 0.161466
H9    H     H_    0.880793 0.583479 0.299793 0.155512
H10   H     H_    0.119207 0.416526 0.700210 0.155512
H11   H     H_    0.491044 0.109128 0.272871 0.230010
H12   H     H_    0.508952 0.890872 0.727128 0.230009
H13   H     H_    0.495153 0.885607 0.273419 0.175115
H14   H     H_    0.504831 0.114392 0.726580 0.175111
N1    N     N_R   0.500030 0.500030 0.852070 -0.206906
N2    N     N_R   0.499970 0.499970 0.147930 -0.206902
O1    O     O_R   0.499990 0.319660 0.618740 -0.606290
O2    O     O_R   0.500010 0.680340 0.381260 -0.606286
O3    O     O_R   0.499990 0.319630 0.381170 -0.511578
O4    O     O_R   0.500010 0.680370 0.618830 -0.511586
O5    O     O_R   0.319650 0.500020 0.618780 -0.586285
O6    O     O_R   0.680350 0.499980 0.381220 -0.586276
O7    O     O_R   0.319640 0.500000 0.381210 -0.534508
O8    O     O_R   0.680360 0.500000 0.618790 -0.534508
Cl1   Cl    Cl    0.301573 0.791321 0.886441 -0.641888
Cl2   Cl    Cl    0.698430 0.208701 0.113579 -0.641881
H15   H     H_    0.364558 0.358783 0.864226 0.170691
H16   H     H_    0.635444 0.641216 0.135774 0.170689
Cl3   Cl    Cl    0.323658 0.316024 0.151454 -0.616819
Cl4   Cl    Cl    0.676346 0.683972 0.848545 -0.616806

loop_
_geom_bond_atom_site_label_1
_geom_bond_atom_site_label_2
_ccdc_geom_bond_type
Cu1   O5    S    
Cu2   O7    S    
C18   O8    A    
Cu2   O6    S    
Cu1   O8    S    
C2    O2    A    
Cu1   O1    S    
C1    O1    A    
C17   O5    A    
C26   C28   A    
C13   Cl3   S    
C13   C15   A    
C18   O6    A    
C5    C32   A    
C14   Cl4   S    
C28   C30   A    
C6    C31   A    
C15   H15   S    
C19   H1    S    
C25   H5    S    
C15   N1    A    
C3    C31   A    
C9    C11   A    
C24   C26   A    
C26   H6    S    
C4    C32   A    
C5    C24   S    
C31   H9    S    
Cu2   O3    S    
C8    C11   A    
C2    C11   S    
C10   C12   A    
C28   H8    S    
C19   C21   A    
C20   C22   A    
Cu1   Cu2   S    
C14   C16   A    
C23   C25   A    
C21   C23   A    
C10   H14   S    
C7    C12   A    
C22   C24   A    
Cu2   N2    S    
C9    H13   S    
C25   C27   A    
C4    C17   S    
Cu1   N1    S    
C13   N2    A    
C14   N1    A    
C7    H11   S    
C30   Cl2   S    
C21   H3    S    
C27   C29   A    
C32   H10   S    
C3    C18   S    
C4    C6    A    
C2    O4    A    
C17   O7    A    
Cu1   O4    S    
C7    C9    A    
C1    O3    A    
C20   H2    S    
C20   C30   A    
C8    H12   S    
C6    C23   S    
Cu2   O2    S    
C16   H16   S    
C8    C10   A    
C1    C12   S    
C29   Cl1   S    
C16   N2    A    
C27   H7    S    
C3    C5    A    
C22   H4    S    
C19   C29   A    
