data_str_m2_o1_o14_f0_pcu.sym.48
_audit_creation_date              2012-10-26T21:00:43-0400
_audit_creation_method            fapswitch 2.2
_symmetry_space_group_name_H-M    P1
_symmetry_Int_Tables_number       1
_space_group_crystal_system       triclinic
_cell_length_a                    10.783821
_cell_length_b                    9.568964
_cell_length_c                    10.979666
_cell_angle_alpha                 90.046386
_cell_angle_beta                  92.173011
_cell_angle_gamma                 90.000744
_cell_volume                      1132.17655887

loop_
_atom_site_label
_atom_site_type_symbol
_atom_type_description
_atom_site_fract_x
_atom_site_fract_y
_atom_site_fract_z
_atom_type_partial_charge
C1    C     C_R   0.262526 0.500083 0.502822 0.519203
C2    C     C_R   0.497168 0.500893 0.737755 0.585871
C3    C     C_R   0.562767 0.758326 0.118359 -0.072629
C4    C     C_R   0.454990 0.762801 0.885036 -0.065852
C5    C     C_R   0.541852 0.885342 0.059482 -0.120825
C6    C     C_R   0.481534 0.887658 0.945621 -0.112918
C7    C     C_R   0.489019 0.632451 0.938093 -0.021432
C8    C     C_R   0.522585 0.631030 0.063612 -0.023794
C9    C     C_R   0.510843 0.503193 0.128659 -0.042008
C10   C     C_R   0.495349 0.504260 0.871946 -0.028110
C11   C     C_R   0.493412 0.378132 0.062391 0.241826
C12   C     C_R   0.737559 0.499975 0.503816 0.581151
C13   C     C_R   0.512774 0.378716 0.937446 0.250346
C14   C     C_R   0.060755 0.411604 0.433056 -0.120988
C15   C     C_R   0.933105 0.411167 0.433756 -0.130567
C16   C     C_R   0.871686 0.499882 0.512217 0.017869
C17   C     C_R   0.128752 0.500658 0.510782 -0.010120
C18   C     C_3   0.350767 0.204409 0.079976 -0.113135
C19   C     C_3   0.659572 0.209953 0.918877 -0.111959
C20   C     C_2   0.872149 0.668385 0.689226 0.250651
C21   C     C_2   0.145362 0.672176 0.683508 0.237343
C22   C     C_2   0.306361 0.139838 0.366341 0.237326
C23   C     C_R   0.938214 0.588076 0.595206 0.016102
C24   C     C_2   0.695034 0.140427 0.631655 0.245632
C25   C     C_R   0.069114 0.589691 0.593334 -0.009294
C26   C     C_R   0.408036 0.072081 0.437868 0.140260
C27   C     C_R   0.592246 0.072297 0.561776 0.122801
C28   C     C_R   0.409272 0.923898 0.438661 0.054413
C29   C     C_R   0.590820 0.924103 0.561273 0.039667
C30   C     C_R   0.504700 0.500589 0.262485 0.554925
Cu1   Cu    Cu3+1 0.500000 0.640660 0.500000 0.958318
Cu2   Cu    Cu3+1 0.500000 0.359340 0.500000 0.985482
H1    H     H_    0.613392 0.762144 0.204962 0.153946
H2    H     H_    0.277056 0.277317 0.108908 0.110613
H3    H     H_    0.334348 0.100899 0.121576 0.154575
H4    H     H_    0.668906 0.194797 0.019095 0.154564
H5    H     H_    0.731186 0.285134 0.889325 0.140504
H6    H     H_    0.678508 0.106884 0.877458 0.151282
H7    H     H_    0.898114 0.774970 0.711254 0.191935
H8    H     H_    0.228066 0.625888 0.725835 0.098539
H9    H     H_    0.317986 0.241388 0.326685 0.167903
H10   H     H_    0.683530 0.241463 0.672555 0.188095
H11   H     H_    0.404645 0.771780 0.798801 0.161153
H12   H     H_    0.569327 0.981962 0.104005 0.151836
H13   H     H_    0.458147 0.986087 0.902329 0.161522
H14   H     H_    0.106558 0.344844 0.369086 0.154567
H15   H     H_    0.881742 0.343579 0.370634 0.145244
H16   H     H_    0.338172 0.865431 0.388491 0.172355
H17   H     H_    0.662020 0.865897 0.611380 0.172871
H18   H     H_    0.342370 0.188725 0.979769 0.162683
N1    N     N_R   0.500000 0.852070 0.500000 -0.283628
N2    N     N_R   0.500000 0.147940 0.500000 -0.282729
O1    O     O_R   0.319640 0.618740 0.499990 -0.504703
O2    O     O_3   0.539402 0.254180 0.879556 -0.572395
O3    O     O_2   0.788400 0.614695 0.744574 -0.523005
O4    O     O_2   0.120258 0.793275 0.707190 -0.505665
O5    O     O_2   0.207160 0.080351 0.347921 -0.545635
O6    O     O_2   0.795188 0.082076 0.646841 -0.536854
O7    O     O_R   0.680360 0.618740 0.500010 -0.491182
O8    O     O_R   0.319620 0.381170 0.499990 -0.523262
O9    O     O_R   0.680380 0.381170 0.500010 -0.526682
O10   O     O_R   0.500000 0.618810 0.319650 -0.528877
O11   O     O_R   0.500000 0.618810 0.680350 -0.508471
O12   O     O_R   0.499970 0.381240 0.319640 -0.475128
O13   O     O_R   0.500030 0.381240 0.680360 -0.471119
O14   O     O_3   0.469502 0.252632 0.119877 -0.570407

loop_
_geom_bond_atom_site_label_1
_geom_bond_atom_site_label_2
_ccdc_geom_bond_type
C8    C9    A    
C21   O4    D    
C27   N2    A    
C24   C27   S    
C6    H13   S    
C26   N2    A    
C7    C10   A    
C24   H10   S    
C18   H3    S    
C20   O3    D    
C26   C28   A    
Cu1   Cu2   S    
Cu1   O10   S    
C11   O14   S    
C15   H15   S    
C2    O13   A    
C17   C25   A    
C22   O5    D    
C23   C25   A    
C7    C8    A    
C14   H14   S    
C29   H17   S    
Cu1   O1    S    
C1    O1    A    
C12   O9    A    
C9    C11   A    
C14   C17   A    
Cu2   O12   S    
C21   H8    S    
C9    C30   S    
C18   H2    S    
C4    C7    A    
C19   O2    S    
C4    C6    A    
C4    H11   S    
C5    H12   S    
Cu2   O9    S    
C3    C8    A    
C16   C23   A    
C30   O12   A    
C19   H4    S    
C30   O10   A    
C22   C26   S    
C5    C6    A    
C28   N1    A    
C12   O7    A    
C22   H9    S    
C27   C29   A    
C3    H1    S    
C15   C16   A    
C2    C10   S    
Cu1   O11   S    
C11   C13   A    
C19   H6    S    
C2    O11   A    
C18   H18   S    
C24   O6    D    
C13   O2    S    
C29   N1    A    
C1    O8    A    
Cu1   O7    S    
C20   H7    S    
Cu2   O8    S    
C18   O14   S    
Cu2   N2    S    
C21   C25   S    
C19   H5    S    
C14   C15   A    
C20   C23   S    
C1    C17   S    
C28   H16   S    
C12   C16   S    
Cu1   N1    S    
Cu2   O13   S    
C3    C5    A    
C10   C13   A    
