data_str_m2_o4_o4_f0_pcu.sym.165
_audit_creation_date              2012-12-10T19:07:36-0500
_audit_creation_method            fapswitch 2.2
_symmetry_space_group_name_H-M    P1
_symmetry_Int_Tables_number       1
_space_group_crystal_system       triclinic
_cell_length_a                    10.855536
_cell_length_b                    10.838651
_cell_length_c                    9.548245
_cell_angle_alpha                 89.602096
_cell_angle_beta                  89.841798
_cell_angle_gamma                 91.27027
_cell_volume                      1123.13250598

loop_
_atom_site_label
_atom_site_type_symbol
_atom_type_description
_atom_site_fract_x
_atom_site_fract_y
_atom_site_fract_z
_atom_type_partial_charge
C1    C     C_R   0.498235 0.262349 0.500356 0.839519
C2    C     C_R   0.937094 0.482138 0.622181 0.102512
C3    C     C_3   0.933603 0.367303 0.710095 -0.444982
C4    C     C_3   0.073156 0.372888 0.708660 -0.405622
C5    C     C_R   0.522407 0.062793 0.623210 0.066534
C6    C     C_R   0.500893 0.129020 0.499882 -0.092631
C7    C     C_R   0.489163 0.064705 0.373145 -0.193382
C8    C     C_R   0.488621 0.936397 0.373146 -0.216827
C9    C     C_R   0.503133 0.870735 0.498781 -0.064317
C10   C     C_R   0.525114 0.935600 0.622178 -0.004895
C11   C     C_3   0.462087 0.922760 0.760859 -0.482844
C12   C     C_R   0.262549 0.504955 0.499390 0.799841
C13   C     C_3   0.457074 0.062726 0.761779 0.672264
C14   C     C_R   0.566309 0.588458 0.072512 0.221877
C15   C     C_R   0.424180 0.422619 0.075315 -0.052770
C16   C     C_R   0.423448 0.423415 0.926502 0.007187
C17   C     C_R   0.567453 0.586580 0.924666 0.204222
C18   C     C_3   0.703133 0.604893 0.914856 -0.470093
C19   C     C_3   0.703630 0.608440 0.073760 -0.163625
C20   C     C_R   0.499264 0.737500 0.499659 0.783105
C21   C     C_R   0.737629 0.499529 0.500181 0.801717
C22   C     C_R   0.064158 0.486362 0.620039 0.077028
C23   C     C_R   0.129534 0.517803 0.498095 -0.118987
C24   C     C_R   0.063053 0.559885 0.378750 0.085816
C25   C     C_R   0.934322 0.552379 0.382950 -0.254202
C26   C     C_R   0.870960 0.508229 0.501240 -0.110638
Cu1   Cu    Cu3+1 0.499990 0.499980 0.640670 0.975966
Cu2   Cu    Cu3+1 0.500010 0.500020 0.359330 0.939558
H1    H     H_    0.523646 0.883299 0.841339 0.185001
H2    H     H_    0.364861 0.357932 0.131798 0.151350
H3    H     H_    0.363046 0.359981 0.871412 0.194260
H4    H     H_    0.748849 0.522187 0.873937 0.202996
H5    H     H_    0.729870 0.691203 0.858865 0.188704
H6    H     H_    0.750470 0.527014 0.118355 0.174512
H7    H     H_    0.883408 0.578136 0.291789 0.145437
H8    H     H_    0.894738 0.381879 0.816117 0.199239
H9    H     H_    0.894037 0.286311 0.653642 0.208370
H10   H     H_    0.113928 0.392928 0.812953 0.201003
H11   H     H_    0.114673 0.294870 0.651707 0.237958
H12   H     H_    0.475706 0.112812 0.274726 0.195003
H13   H     H_    0.472841 0.888822 0.275768 0.174581
H14   H     H_    0.370516 0.875193 0.753125 0.209980
N1    N     N_R   0.500790 0.500930 0.147930 -0.203188
N2    N     N_R   0.500790 0.500890 0.852020 -0.188345
O1    O     O_R   0.500000 0.319640 0.618810 -0.532851
O2    O     O_R   0.500010 0.319680 0.381230 -0.588361
O3    O     O_R   0.319650 0.499970 0.618810 -0.579348
O4    O     O_R   0.319660 0.500010 0.381230 -0.592738
O5    O     O_R   0.499990 0.680320 0.618770 -0.579681
O6    O     O_R   0.500000 0.680360 0.381190 -0.595492
O7    O     O_R   0.680340 0.499990 0.618770 -0.576357
O8    O     O_R   0.680350 0.500030 0.381190 -0.592642
C27   C     C_3   0.121910 0.609546 0.244167 -0.382310
C28   C     C_3   0.183545 0.736710 0.265808 -0.321697
C29   C     C_3   0.244876 0.783808 0.130932 -0.813542
H15   H     H_    0.321839 0.723292 0.101297 0.246380
H16   H     H_    0.176948 0.786131 0.044214 0.255593
H17   H     H_    0.282000 0.878924 0.146650 0.250486
H18   H     H_    0.112647 0.803289 0.298433 0.216212
H19   H     H_    0.253914 0.732671 0.349633 0.225555
H20   H     H_    0.186390 0.542662 0.198951 0.219050
H21   H     H_    0.050854 0.620334 0.161501 0.173162
Cl1   Cl    Cl    0.303263 0.118030 0.754814 -0.685615
Cl2   Cl    Cl    0.547711 0.132592 0.896282 -0.678821
C30   C     C_3   0.749828 0.731157 0.139376 -0.388115
C31   C     C_3   0.694337 0.850378 0.081533 -0.318801
C32   C     C_3   0.743808 0.962139 0.162286 -0.782327
H22   H     H_    0.729565 0.949291 0.276647 0.248700
H23   H     H_    0.843991 0.975735 0.141783 0.249376
H24   H     H_    0.695654 0.046373 0.128411 0.288224
H25   H     H_    0.719710 0.864933 0.970085 0.227375
H26   H     H_    0.592514 0.845242 0.089458 0.216363
H27   H     H_    0.730766 0.725917 0.253688 0.219105
H28   H     H_    0.851405 0.737681 0.125054 0.194925

loop_
_geom_bond_atom_site_label_1
_geom_bond_atom_site_label_2
_ccdc_geom_bond_type
C21   C26   S    
C11   C13   S    
C12   O4    A    
C7    C8    A    
C28   H19   S    
C27   C28   S    
C16   H3    S    
C12   C23   S    
Cu2   O2    S    
C5    C6    A    
C1    O2    A    
C15   C16   A    
C30   H27   S    
C11   H14   S    
C18   C19   S    
C20   O6    A    
C27   H20   S    
Cu1   N2    S    
C31   H26   S    
C8    C9    A    
C2    C22   A    
C23   C24   A    
C9    C10   A    
C16   N2    A    
C5    C13   S    
Cu1   O1    S    
C31   C32   S    
C14   C17   A    
Cu2   O6    S    
C12   O3    A    
Cu1   O7    S    
C28   H18   S    
C1    C6    S    
C24   C25   A    
C24   C27   S    
C30   H28   S    
C32   H22   S    
C32   H23   S    
C20   O5    A    
C4    C22   S    
C27   H21   S    
C9    C20   S    
C31   H25   S    
C13   Cl1   S    
C4    H11   S    
C7    H12   S    
C29   H15   S    
C17   C18   S    
C2    C26   A    
C8    H13   S    
C3    H9    S    
C25   H7    S    
C4    H10   S    
C29   H16   S    
C18   H4    S    
C3    C4    S    
C21   O7    A    
C15   H2    S    
Cu1   O3    S    
C28   C29   S    
Cu2   O4    S    
C14   C19   S    
C19   H6    S    
C6    C7    A    
Cu2   N1    S    
C32   H24   S    
C2    C3    S    
C25   C26   A    
C17   N2    A    
C15   N1    A    
C5    C10   A    
Cu2   O8    S    
C1    O1    A    
C13   Cl2   S    
C3    H8    S    
C19   C30   S    
C18   H5    S    
C10   C11   S    
C11   H1    S    
C30   C31   S    
C29   H17   S    
Cu1   Cu2   S    
C22   C23   A    
C21   O8    A    
Cu1   O5    S    
C14   N1    A    
