data_str_m2_o5_o28_f0_pcu.sym.95
_audit_creation_date              2013-03-05T16:35:54-0500
_audit_creation_method            fapswitch 2.2
_symmetry_space_group_name_H-M    P1
_symmetry_Int_Tables_number       1
_space_group_crystal_system       triclinic
_cell_length_a                    23.553181
_cell_length_b                    9.091394
_cell_length_c                    7.787093
_cell_angle_alpha                 89.855693
_cell_angle_beta                  89.924605
_cell_angle_gamma                 90.203665
_cell_volume                      1667.4426591

loop_
_atom_site_label
_atom_site_type_symbol
_atom_site_description
_atom_site_fract_x
_atom_site_fract_y
_atom_site_fract_z
_atom_type_partial_charge
O1    O     O_R   0.500000 0.288390 0.642760 -0.575328
O2    O     O_R   0.500000 0.711610 0.357240 -0.575673
O3    O     O_R   0.500000 0.711610 0.642760 -0.575908
O4    O     O_R   0.500000 0.288390 0.357240 -0.575932
C1    C     C_R   0.499987 0.220028 0.500132 0.850192
C2    C     C_R   0.500014 0.779972 0.499868 0.849625
O5    O     O_R   0.417880 0.500000 0.642820 -0.587944
O6    O     O_R   0.582120 0.500000 0.357180 -0.581236
O7    O     O_R   0.582120 0.500000 0.642820 -0.587406
O8    O     O_R   0.417880 0.500000 0.357180 -0.582114
C3    C     C_R   0.208695 0.501568 0.490988 0.185464
C4    C     C_R   0.791031 0.502090 0.492231 0.189908
C5    C     C_R   0.390628 0.500136 0.499940 0.844696
C6    C     C_R   0.609350 0.500030 0.499775 0.844335
Cu1   Cu    Cu3+1 0.500000 0.500000 0.669080 1.013111
Cu2   Cu    Cu3+1 0.500000 0.500000 0.330920 1.015005
C7    C     C_R   0.299158 0.522780 0.343218 -0.305670
C8    C     C_R   0.701130 0.469495 0.345631 -0.304302
C9    C     C_R   0.297031 0.480974 0.650301 -0.196251
C10   C     C_R   0.702502 0.531607 0.648040 -0.196487
H1    H     H_    0.322783 0.539148 0.225196 0.173393
H2    H     H_    0.677760 0.444408 0.229529 0.173214
H3    H     H_    0.318797 0.464755 0.771345 0.185324
H4    H     H_    0.680399 0.556236 0.766605 0.187822
C11   C     C_R   0.328097 0.501163 0.498308 -0.162346
C12   C     C_R   0.671841 0.500114 0.498209 -0.162787
C13   C     C_R   0.880139 0.621429 0.426647 0.665685
C14   C     C_R   0.119555 0.368885 0.513258 0.627920
C15   C     C_R   0.879796 0.375800 0.534901 0.605942
C16   C     C_R   0.119211 0.623993 0.441989 0.637444
N1    N     N_R   0.851951 0.500311 0.486137 -0.475440
N2    N     N_R   0.147620 0.498207 0.483266 -0.476785
C17   C     C_R   0.939355 0.366107 0.517351 -0.120364
C18   C     C_R   0.059919 0.621488 0.418017 -0.136660
C19   C     C_R   0.939966 0.622031 0.415875 -0.105281
C20   C     C_R   0.059579 0.363985 0.512124 -0.107970
C21   C     C_R   0.969683 0.493322 0.464996 -0.135498
C22   C     C_R   0.029686 0.492608 0.464207 -0.136102
C23   C     C_R   0.969364 0.234541 0.554027 0.300585
C24   C     C_R   0.030149 0.744749 0.352572 0.308989
C25   C     C_R   0.970290 0.746385 0.354890 0.429313
C26   C     C_R   0.029289 0.234363 0.555787 0.435824
C27   C     C_1   0.499997 0.065376 0.500181 -0.158747
C28   C     C_1   0.500006 0.934624 0.499817 -0.158763
C29   C     C_R   0.239655 0.523443 0.338532 0.454475
C30   C     C_R   0.760659 0.469272 0.341975 0.452691
C31   C     C_R   0.237705 0.481877 0.648810 0.401793
C32   C     C_R   0.761800 0.534316 0.646738 0.403065
N3    N     N_1   0.500000 0.500000 0.076820 -0.047167
N4    N     N_1   0.500000 0.500000 0.923180 -0.046823
O9    O     O_2   0.849944 0.741034 0.380624 -0.426946
O10   O     O_2   0.149982 0.246450 0.545513 -0.408216
O11   O     O_2   0.849617 0.263938 0.603991 -0.472659
O12   O     O_2   0.148440 0.751505 0.429127 -0.454776
O13   O     O_3   0.941379 0.103819 0.585535 -0.676577
H5    H     H_    0.913102 0.090913 0.492639 0.391248
O14   O     O_3   0.058286 0.862656 0.279518 -0.668554
H6    H     H_    0.087522 0.822381 0.201075 0.372610
O15   O     O_3   0.940460 0.865994 0.292135 -0.652919
H7    H     H_    0.966604 0.946508 0.258613 0.372771
O16   O     O_3   0.059199 0.108332 0.597826 -0.612951
H8    H     H_    0.033095 0.027544 0.630695 0.378554
O17   O     O_3   0.210619 0.544476 0.186681 -0.673234
H9    H     H_    0.238339 0.568500 0.094875 0.357692
O18   O     O_3   0.790369 0.436874 0.193887 -0.665929
H10   H     H_    0.763006 0.414434 0.100808 0.355998
O19   O     O_3   0.209950 0.463267 0.803514 -0.689831
H11   H     H_    0.169342 0.488066 0.790030 0.344196
O20   O     O_3   0.789191 0.569328 0.798008 -0.681093
H12   H     H_    0.830705 0.572136 0.778807 0.349785

loop_
_geom_bond_atom_site_label_1
_geom_bond_atom_site_label_2
_geom_bond_distance
_ccdc_geom_bond_type
O4    Cu2   1.934204 S    
O5    C5    1.285223 A    
C9    H3    1.083574 S    
O7    C6    1.284608 A    
C21   C22   1.413310 A    
O1    Cu1   1.935231 S    
C15   O11   1.349094 S    
O2    Cu2   1.935230 S    
C3    C31   1.418191 A    
C4    C32   1.417202 A    
C8    C12   1.402117 A    
C14   O10   1.349221 S    
C32   O20   1.381145 S    
O13   H5    0.990839 S    
O3    C2    1.273150 A    
C7    C11   1.401318 A    
C4    N1    1.435744 S    
O5    Cu1   1.945237 S    
C1    C27   1.406005 S    
O15   H7    0.989210 S    
C15   N1    1.363622 A    
C2    C28   1.406002 S    
C6    C12   1.471891 S    
C16   N2    1.364902 A    
C16   O12   1.349606 S    
C26   O16   1.385914 S    
C5    C11   1.472938 S    
O14   H6    0.991556 S    
C10   C32   1.396814 A    
C10   C12   1.402581 A    
C18   C24   1.418021 A    
C8    C30   1.402355 A    
C17   C21   1.416015 A    
C20   C22   1.416583 A    
C24   C25   1.410093 A    
C19   C21   1.417642 A    
C13   O9    1.349379 S    
C3    N2    1.440050 S    
O18   H10   0.991650 S    
C23   C26   1.411523 A    
C9    C31   1.397435 A    
O20   H12   0.989179 S    
C27   C28   1.188736 T    
O7    Cu1   1.944699 S    
O16   H8    0.989154 S    
C19   C25   1.415797 A    
O1    C1    1.274089 A    
C3    C29   1.405781 A    
Cu1   Cu2   2.633284 S    
C16   C18   1.409285 A    
C9    C11   1.402010 A    
C13   N1    1.363565 A    
O19   H11   0.989114 S    
C15   C17   1.412338 A    
C14   N2    1.366204 A    
O3    Cu1   1.934203 S    
Cu2   N3    1.978700 S    
C14   C20   1.413202 A    
C30   O18   1.381048 S    
C4    C30   1.404359 A    
N3    N4    1.196410 T    
O6    Cu2   1.945234 S    
Cu1   N4    1.978700 S    
C31   O19   1.379625 S    
C10   H4    1.083603 S    
O4    C1    1.273147 A    
O8    Cu2   1.944702 S    
C24   O14   1.379393 S    
O6    C6    1.283042 A    
C13   C19   1.411483 A    
C8    H2    1.083439 S    
C17   C23   1.420091 A    
C20   C26   1.415872 A    
C29   O17   1.380018 S    
C7    H1    1.083420 S    
O2    C2    1.274087 A    
C25   O15   1.385120 S    
C7    C29   1.402035 A    
O17   H9    0.990977 S    
C23   O13   1.378251 S    
O8    C5    1.282954 A    
C18   C22   1.414423 A    
