data_str_m2_o4_o14_f0_pcu.sym.105
_audit_creation_date              2012-12-10T18:59:13-0500
_audit_creation_method            fapswitch 2.2
_symmetry_space_group_name_H-M    P1
_symmetry_Int_Tables_number       1
_space_group_crystal_system       triclinic
_cell_length_a                    10.816241
_cell_length_b                    10.780884
_cell_length_c                    9.586422
_cell_angle_alpha                 89.966099
_cell_angle_beta                  88.443
_cell_angle_gamma                 90.787864
_cell_volume                      1117.34073514

loop_
_atom_site_label
_atom_site_type_symbol
_atom_type_description
_atom_site_fract_x
_atom_site_fract_y
_atom_site_fract_z
_atom_type_partial_charge
C1    C     C_R   0.504593 0.262735 0.500084 0.787417
C2    C     C_R   0.055754 0.532441 0.628247 -0.010912
C3    C     C_R   0.125822 0.486023 0.511536 -0.042277
C4    C     C_R   0.064425 0.448828 0.391554 -0.164680
C5    C     C_R   0.937269 0.458677 0.385765 -0.145514
C6    C     C_R   0.871735 0.519138 0.492904 -0.072881
C7    C     C_R   0.457655 0.063905 0.611124 0.089404
C8    C     C_R   0.517092 0.129607 0.502702 -0.201506
C9    C     C_R   0.590083 0.063946 0.402715 0.424181
C10   C     C_R   0.583543 0.934295 0.402368 -0.138619
C11   C     C_R   0.509285 0.870718 0.501873 -0.151520
C12   C     C_R   0.261638 0.493301 0.503162 0.803693
C13   C     C_R   0.454233 0.936411 0.611301 0.112845
C14   C     C_3   0.323080 0.931973 0.664794 -0.442683
C15   C     C_3   0.327367 0.072723 0.665437 -0.401021
C16   C     C_R   0.562599 0.590539 0.071400 0.086177
C17   C     C_R   0.446331 0.405130 0.073600 0.470248
C18   C     C_R   0.449736 0.404582 0.925941 -0.021566
C19   C     C_R   0.561356 0.590874 0.924143 0.188501
C20   C     C_3   0.536820 0.726081 0.916033 -0.454214
C21   C     C_3   0.540212 0.728053 0.073958 0.202664
C22   C     C_R   0.500448 0.737439 0.500113 0.836088
C23   C     C_R   0.737471 0.507326 0.497862 0.781704
C24   C     C_R   0.095682 0.534505 0.767950 0.366134
C25   C     C_R   0.038915 0.616965 0.864761 -0.026070
C26   C     C_R   0.939664 0.689515 0.822457 0.154755
C27   C     C_R   0.883777 0.664501 0.695156 0.346584
C28   C     C_R   0.935499 0.573321 0.604604 -0.117724
Cu1   Cu    Cu3+1 0.499990 0.499980 0.640670 0.995740
Cu2   Cu    Cu3+1 0.500010 0.500020 0.359330 0.986062
H1    H     H_    0.114513 0.408816 0.303532 0.168663
H2    H     H_    0.313661 0.891617 0.771208 0.216019
H3    H     H_    0.264881 0.115252 0.589114 0.200425
H4    H     H_    0.322039 0.112922 0.772151 0.221412
H5    H     H_    0.405352 0.329297 0.871047 0.178675
H6    H     H_    0.613768 0.778843 0.864294 0.238869
H7    H     H_    0.444163 0.745191 0.874460 0.210924
H8    H     H_    0.619609 0.781897 0.114310 0.164549
H9    H     H_    0.890251 0.418917 0.297620 0.173612
H10   H     H_    0.636939 0.883528 0.325004 0.168094
H11   H     H_    0.258451 0.892364 0.587696 0.205691
N1    N     N_R   0.500790 0.500930 0.147930 -0.233791
N2    N     N_R   0.500790 0.500890 0.852020 -0.213103
O1    O     O_R   0.500000 0.319640 0.618810 -0.580915
O2    O     O_R   0.500010 0.319680 0.381230 -0.558518
O3    O     O_R   0.319640 0.499980 0.618820 -0.523261
O4    O     O_R   0.319650 0.500020 0.381230 -0.603730
O5    O     O_R   0.499990 0.680320 0.618770 -0.570606
O6    O     O_R   0.500000 0.680360 0.381190 -0.540342
O7    O     O_R   0.680350 0.499980 0.618770 -0.541764
O8    O     O_R   0.680360 0.500020 0.381180 -0.595631
O9    O     O_3   0.383790 0.308214 0.137681 -0.710101
H12   H     H_    0.339781 0.341491 0.220203 0.357982
O10   O     O_3   0.426594 0.762627 0.136254 -0.653568
H13   H     H_    0.362079 0.703341 0.105696 0.357976
O11   O     O_3   0.174954 0.443231 0.810197 -0.706110
H14   H     H_    0.174823 0.438126 0.912964 0.342911
I1    I     I_    0.102743 0.635362 0.072573 -0.382276
I2    I     I_    0.873342 0.840319 0.945977 -0.276888
O12   O     O_3   0.785677 0.736994 0.658064 -0.707827
H15   H     H_    0.781997 0.738970 0.554950 0.309821
O13   O     O_3   0.666595 0.121207 0.303976 -0.685301
H16   H     H_    0.688863 0.205221 0.337337 0.327102

loop_
_geom_bond_atom_site_label_1
_geom_bond_atom_site_label_2
_ccdc_geom_bond_type
C22   O5    A    
Cu2   O8    S    
C15   H4    S    
Cu1   Cu2   S    
C24   O11   S    
C1    C8    S    
C26   I2    S    
O10   H13   S    
Cu2   O2    S    
C23   O8    A    
C19   C20   S    
C14   C15   S    
Cu1   O3    S    
C27   O12   S    
C1    O1    A    
C10   C11   A    
C7    C15   S    
C17   C18   A    
C7    C8    A    
C18   N2    A    
C20   C21   S    
C20   H7    S    
C11   C13   A    
C1    O2    A    
C26   C27   A    
O13   H16   S    
C12   O4    A    
C5    C6    A    
C6    C23   S    
C17   O9    S    
C12   O3    A    
Cu2   O6    S    
C19   N2    A    
C2    C3    A    
Cu2   N1    S    
Cu1   O7    S    
C14   H11   S    
Cu1   O1    S    
C2    C24   A    
C21   O10   S    
C6    C28   A    
C4    H1    S    
C25   I1    S    
Cu1   O5    S    
C3    C4    A    
C20   H6    S    
C16   N1    A    
Cu2   O4    S    
C7    C13   A    
C14   H2    S    
C24   C25   A    
C18   H5    S    
C10   H10   S    
C9    C10   A    
C22   O6    A    
C27   C28   A    
O11   H14   S    
C5    H9    S    
C17   N1    A    
O12   H15   S    
C23   O7    A    
C2    C28   A    
C3    C12   S    
C11   C22   S    
C25   C26   A    
C13   C14   S    
C4    C5    A    
C16   C21   S    
C15   H3    S    
Cu1   N2    S    
C21   H8    S    
C9    O13   S    
O9    H12   S    
C8    C9    A    
C16   C19   A    
