data_str_m2_o5_o8_f0_pcu.sym.37
_audit_creation_date              2012-10-26T19:15:56-0400
_audit_creation_method            fapswitch 2.2
_symmetry_space_group_name_H-M    P1
_symmetry_Int_Tables_number       1
_space_group_crystal_system       triclinic
_cell_length_a                    7.794129
_cell_length_b                    9.078193
_cell_length_c                    17.046213
_cell_angle_alpha                 89.579636
_cell_angle_beta                  94.054755
_cell_angle_gamma                 90.088865
_cell_volume                      1203.08014388

loop_
_atom_site_label
_atom_site_type_symbol
_atom_type_description
_atom_site_fract_x
_atom_site_fract_y
_atom_site_fract_z
_atom_type_partial_charge
C1    C     C_R   0.499876 0.220081 0.499822 0.538540
C2    C     C_R   0.488976 0.401639 0.137181 -0.080645
C3    C     C_R   0.537151 0.460968 0.900820 0.214471
C4    C     C_R   0.462851 0.539015 0.099179 0.214469
C5    C     C_R   0.568685 0.334325 0.856271 0.033443
C6    C     C_R   0.431272 0.665651 0.143724 0.033438
C7    C     C_R   0.566112 0.345983 0.773176 -0.022581
C8    C     C_R   0.433845 0.653999 0.226820 -0.022584
C9    C     C_1   0.499878 0.065410 0.499933 -0.062920
C10   C     C_1   0.500122 0.934590 0.500067 -0.062919
C11   C     C_3   0.521605 0.239826 0.257079 -0.398504
C12   C     C_R   0.500124 0.779919 0.500178 0.538542
C13   C     C_3   0.478486 0.760184 0.742927 -0.398508
C14   C     C_3   0.601532 0.187061 0.897100 -0.382252
C15   C     C_3   0.398374 0.812901 0.102891 -0.382252
C16   C     C_3   0.593378 0.212821 0.721999 -0.387371
C17   C     C_3   0.406535 0.787155 0.277993 -0.387369
C18   C     C_R   0.521337 0.496509 0.650922 0.544754
C19   C     C_R   0.478663 0.503491 0.349078 0.544754
C20   C     C_R   0.533913 0.484715 0.736565 0.037275
C21   C     C_R   0.466087 0.515278 0.263434 0.037275
C22   C     C_R   0.508417 0.611123 0.781367 -0.050572
C23   C     C_R   0.491628 0.388876 0.218636 -0.050577
C24   C     C_R   0.511071 0.598356 0.862821 -0.080643
Cu1   Cu    Cu3+1 0.669080 0.500010 0.500000 1.006093
Cu2   Cu    Cu3+1 0.330920 0.499990 0.500000 1.006093
H1    H     H_    0.410836 0.210371 0.291664 0.136601
H2    H     H_    0.601759 0.192462 0.962025 0.149201
H3    H     H_    0.499836 0.107334 0.876980 0.119368
H4    H     H_    0.270446 0.855455 0.116537 0.129026
H5    H     H_    0.500042 0.892653 0.123008 0.119365
H6    H     H_    0.398146 0.807495 0.037966 0.149206
H7    H     H_    0.616788 0.108634 0.754969 0.118911
H8    H     H_    0.477765 0.195621 0.681182 0.134984
H9    H     H_    0.706378 0.231851 0.687065 0.153736
H10   H     H_    0.383104 0.891337 0.245020 0.118916
H11   H     H_    0.293535 0.768105 0.312923 0.153747
H12   H     H_    0.536396 0.151872 0.213103 0.112496
H13   H     H_    0.522137 0.804380 0.318813 0.134971
H14   H     H_    0.640568 0.242465 0.296917 0.155825
H15   H     H_    0.589266 0.789616 0.708344 0.136612
H16   H     H_    0.359522 0.757572 0.703089 0.155810
H17   H     H_    0.463721 0.848139 0.786906 0.112489
H18   H     H_    0.508068 0.303369 0.103227 0.134199
H19   H     H_    0.492017 0.696630 0.896779 0.134197
H20   H     H_    0.729449 0.144476 0.883454 0.129019
N1    N     N_1   0.076820 0.499970 0.500010 -0.079146
N2    N     N_1   0.923180 0.500030 0.499990 -0.079146
N3    N     N_2   0.533441 0.446932 0.983810 -0.257395
N4    N     N_2   0.466561 0.553049 0.016189 -0.257393
O1    O     O_R   0.642760 0.288400 0.500000 -0.499944
O2    O     O_R   0.357240 0.711600 0.500000 -0.499943
O3    O     O_R   0.357190 0.288380 0.500000 -0.495595
O4    O     O_R   0.642810 0.711620 0.500000 -0.495594
O5    O     O_R   0.658410 0.498660 0.613920 -0.502137
O6    O     O_R   0.341590 0.501340 0.386080 -0.502140
O7    O     O_R   0.372840 0.498650 0.613930 -0.499847
O8    O     O_R   0.627160 0.501350 0.386070 -0.499849

loop_
_geom_bond_atom_site_label_1
_geom_bond_atom_site_label_2
_ccdc_geom_bond_type
C19   O6    A    
C11   H12   S    
C2    C4    A    
Cu1   O1    S    
C15   H5    S    
C17   H10   S    
Cu2   O2    S    
C16   H7    S    
C9    C10   T    
C16   H9    S    
C18   O7    A    
N1    N2    T    
C11   H1    S    
C3    C5    A    
C16   H8    S    
C13   H15   S    
C8    C21   A    
C3    N3    S    
C15   H6    S    
C14   H20   S    
Cu1   Cu2   S    
C17   H11   S    
C1    O1    A    
Cu1   N2    S    
C5    C14   S    
C10   C12   S    
Cu2   N1    S    
C24   H19   S    
C18   O5    A    
C11   C23   S    
C7    C16   S    
C12   O2    A    
C3    C24   A    
C20   C22   A    
C13   C22   S    
N3    N4    D    
C18   C20   S    
C21   C23   A    
C19   O8    A    
C11   H14   S    
Cu2   O7    S    
C22   C24   A    
Cu1   O8    S    
C14   H3    S    
Cu2   O3    S    
Cu1   O5    S    
C13   H17   S    
C1    C9    S    
Cu1   O4    S    
C15   H4    S    
C4    C6    A    
C7    C20   A    
C17   H13   S    
C4    N4    S    
C2    C23   A    
C5    C7    A    
C1    O3    A    
C13   H16   S    
C6    C8    A    
C14   H2    S    
C6    C15   S    
C12   O4    A    
C8    C17   S    
C2    H18   S    
C19   C21   S    
Cu2   O6    S    
