data_str_m2_o4_o22_f0_pcu.sym.107
_audit_creation_date              2013-03-05T16:32:07-0500
_audit_creation_method            fapswitch 2.2
_symmetry_space_group_name_H-M    P1
_symmetry_Int_Tables_number       1
_space_group_crystal_system       triclinic
_cell_length_a                    10.823757
_cell_length_b                    10.824187
_cell_length_c                    9.545542
_cell_angle_alpha                 88.890453
_cell_angle_beta                  90.358623
_cell_angle_gamma                 89.003801
_cell_volume                      1117.93711091

loop_
_atom_site_label
_atom_site_type_symbol
_atom_site_description
_atom_site_fract_x
_atom_site_fract_y
_atom_site_fract_z
_atom_type_partial_charge
O1    O     O_R   0.500000 0.319640 0.618810 -0.575056
O2    O     O_R   0.500010 0.319680 0.381230 -0.591242
C1    C     C_R   0.499580 0.262736 0.501225 0.859962
O3    O     O_R   0.317690 0.499960 0.618790 -0.600044
O4    O     O_R   0.317700 0.500000 0.381210 -0.596409
C2    C     C_R   0.259961 0.503764 0.499469 0.802808
Cu1   Cu    Cu3+1 0.499990 0.499980 0.640670 1.005508
Cu2   Cu    Cu3+1 0.500010 0.500020 0.359330 0.995191
O5    O     O_R   0.499990 0.680320 0.618770 -0.574431
O6    O     O_R   0.500000 0.680360 0.381190 -0.540952
O7    O     O_R   0.682300 0.500000 0.618790 -0.547265
O8    O     O_R   0.682310 0.500040 0.381210 -0.543799
C3    C     C_R   0.500034 0.737589 0.498601 0.831163
C4    C     C_R   0.740230 0.500642 0.499955 0.814579
C5    C     C_3   0.076265 0.380526 0.564379 -0.129293
H1    H     H_    0.117700 0.370705 0.671274 0.215810
C6    C     C_3   0.932338 0.383914 0.577120 0.118120
H2    H     H_    0.894754 0.302266 0.524315 0.101942
H3    H     H_    0.093783 0.594953 0.700613 0.209055
H4    H     H_    0.882968 0.632640 0.675238 0.214021
C7    C     C_3   0.069044 0.611154 0.588568 -0.361698
C8    C     C_3   0.070248 0.525217 0.344557 -0.039499
C9    C     C_3   0.122044 0.504794 0.497884 0.040092
H5    H     H_    0.115742 0.459423 0.271870 0.148824
C10   C     C_3   0.878378 0.501861 0.498711 -0.038610
C11   C     C_3   0.926778 0.619156 0.571626 -0.350509
C12   C     C_3   0.929718 0.499032 0.343851 -0.030814
H6    H     H_    0.917480 0.403507 0.305307 0.133181
H7    H     H_    0.109070 0.701237 0.558495 0.197912
H8    H     H_    0.901611 0.702159 0.507737 0.211256
C13   C     C_R   0.593329 0.061252 0.564224 0.070991
C14   C     C_R   0.495901 0.129986 0.504695 -0.084046
C15   C     C_R   0.395265 0.069269 0.446449 -0.208700
H9    H     H_    0.318473 0.122805 0.402361 0.161853
C16   C     C_R   0.394667 0.939484 0.443073 0.187157
C17   C     C_R   0.497684 0.871265 0.496011 0.022308
C18   C     C_R   0.595839 0.933852 0.555474 -0.032597
C19   C     C_3   0.732442 0.929929 0.524926 0.104053
C20   C     C_3   0.729129 0.070701 0.537619 -0.119490
H10   H     H_    0.786431 0.881669 0.609664 0.090930
H11   H     H_    0.781468 0.102914 0.629639 0.202915
C21   C     C_R   0.464288 0.602778 0.071028 0.278209
N1    N     N_R   0.500800 0.500930 0.147930 -0.198536
C22   C     C_R   0.550041 0.403200 0.076816 -0.043533
H12   H     H_    0.587792 0.323923 0.134050 0.160414
C23   C     C_R   0.549427 0.402916 0.928052 -0.011470
H13   H     H_    0.585768 0.323155 0.874632 0.190209
N2    N     N_R   0.500800 0.500890 0.852020 -0.233694
C24   C     C_R   0.465548 0.603349 0.923323 0.223485
C25   C     C_3   0.341472 0.665135 0.914449 0.110069
C26   C     C_3   0.339017 0.661475 0.073328 -0.569944
H14   H     H_    0.269342 0.608065 0.865096 0.120433
H15   H     H_    0.338631 0.753459 0.123147 0.255266
H16   H     H_    0.270628 0.595005 0.113679 0.174069
N3    N     N_3   0.860966 0.580446 0.244227 -0.506911
H17   H     H_    0.894691 0.568212 0.142898 0.246656
H18   H     H_    0.867659 0.672932 0.270852 0.313032
N4    N     N_3   0.291166 0.877075 0.385044 -0.600787
H19   H     H_    0.244135 0.837920 0.469409 0.229058
H20   H     H_    0.229670 0.940373 0.336702 0.245438
N5    N     N_R   0.767523 0.889124 0.384460 0.105304
O9    O     O_R   0.882760 0.895295 0.347379 -0.393561
O10   O     O_R   0.685649 0.858016 0.291802 -0.353419
N6    N     N_3   0.755723 0.141533 0.408746 -0.586655
H21   H     H_    0.702908 0.110895 0.324492 0.283708
H22   H     H_    0.848947 0.128375 0.384377 0.257713
N7    N     N_3   0.120344 0.273603 0.485158 -0.629967
H23   H     H_    0.100278 0.193188 0.542543 0.246713
H24   H     H_    0.073055 0.268568 0.389803 0.213476
N8    N     N_R   0.346921 0.790827 0.855691 0.160998
O11   O     O_R   0.264866 0.828218 0.763505 -0.393469
O12   O     O_R   0.433051 0.865942 0.893883 -0.338598
N9    N     N_R   0.894431 0.376144 0.725113 0.145557
O13   O     O_R   0.941283 0.447686 0.818937 -0.397757
O14   O     O_R   0.818825 0.290855 0.765833 -0.392398
N10   N     N_3   0.093134 0.652348 0.294193 -0.559027
H25   H     H_    0.184583 0.675480 0.312746 0.242111
H26   H     H_    0.080990 0.657228 0.185539 0.232632

loop_
_geom_bond_atom_site_label_1
_geom_bond_atom_site_label_2
_geom_bond_distance
_ccdc_geom_bond_type
N3    H17   1.045959 S    
N9    O13   1.301456 A    
C16   C17   1.412007 A    
Cu2   N1    2.017834 S    
C8    N10   1.474389 S    
C7    C11   1.548063 S    
Cu1   Cu2   2.685535 S    
C20   H11   1.107501 S    
Cu1   O7    1.985605 S    
C20   N6    1.469547 S    
C16   N4    1.432208 S    
C17   C18   1.393626 A    
H3    C7    1.110800 S    
N10   H26   1.044843 S    
O1    C1    1.290740 A    
O4    C2    1.294700 A    
O7    C4    1.299493 A    
C12   N3    1.473289 S    
N4    H20   1.045691 S    
C5    H1    1.114458 S    
C5    C6    1.563181 S    
N5    O10   1.301182 A    
O5    C3    1.293261 A    
C25   H14   1.111981 S    
N8    O11   1.300333 A    
C21   C26   1.487814 S    
C19   N5    1.469887 S    
C5    C9    1.565801 S    
C6    N9    1.474764 S    
N9    O14   1.299766 A    
N5    O9    1.301161 A    
O3    Cu1   1.982897 S    
C10   C11   1.556796 S    
C22   C23   1.420075 A    
C15   H9    1.083146 S    
C23   N2    1.369086 A    
N7    H23   1.046164 S    
N10   H25   1.040164 S    
C3    C17   1.446444 S    
O3    C2    1.295297 A    
C25   C26   1.516752 S    
N4    H19   1.042451 S    
C7    H7    1.107368 S    
C13   C18   1.382947 A    
N7    H24   1.044274 S    
N6    H22   1.044884 S    
N1    C22   1.369897 A    
C18   C19   1.508857 S    
C13   C14   1.391872 A    
Cu2   O8    1.982896 S    
C5    N7    1.469062 S    
C6    H2    1.108053 S    
N2    C24   1.362554 A    
O8    C4    1.292047 A    
C11   H8    1.105222 S    
C8    C12   1.552078 S    
N3    H18   1.041227 S    
C8    H5    1.114575 S    
C21   N1    1.363911 A    
C22   H12   1.081043 S    
Cu1   O5    1.959168 S    
C23   H13   1.080680 S    
O1    Cu1   1.967167 S    
O2    Cu2   1.959165 S    
O6    C3    1.291012 A    
O4    Cu2   1.985604 S    
C10   C12   1.583142 S    
C26   H16   1.106929 S    
C6    C10   1.569327 S    
Cu1   N2    2.017631 S    
C7    C9    1.557454 S    
O2    C1    1.290252 A    
C25   N8    1.463795 S    
C14   C15   1.399653 A    
C19   H10   1.111636 S    
C19   C20   1.530702 S    
H4    C11   1.110585 S    
C2    C9    1.492603 S    
N6    H21   1.046307 S    
C15   C16   1.405932 A    
C13   C20   1.498109 S    
C4    C10   1.495685 S    
C1    C14   1.437899 S    
C21   C24   1.409978 A    
Cu2   O6    1.967167 S    
C24   C25   1.491036 S    
C12   H6    1.113958 S    
C8    C9    1.574210 S    
N8    O12   1.302547 A    
C26   H15   1.111622 S    
