data_str_m2_o5_o28_f0_pcu.sym.65
_audit_creation_date              2013-03-05T16:35:53-0500
_audit_creation_method            fapswitch 2.2
_symmetry_space_group_name_H-M    P1
_symmetry_Int_Tables_number       1
_space_group_crystal_system       triclinic
_cell_length_a                    23.633472
_cell_length_b                    9.08462
_cell_length_c                    7.769554
_cell_angle_alpha                 90.243419
_cell_angle_beta                  90.071934
_cell_angle_gamma                 89.656253
_cell_volume                      1668.08554919

loop_
_atom_site_label
_atom_site_type_symbol
_atom_site_description
_atom_site_fract_x
_atom_site_fract_y
_atom_site_fract_z
_atom_type_partial_charge
O1    O     O_R   0.500000 0.288390 0.642760 -0.580249
O2    O     O_R   0.500000 0.711610 0.357240 -0.575819
O3    O     O_R   0.500000 0.711610 0.642760 -0.582981
O4    O     O_R   0.500000 0.288390 0.357240 -0.583179
C1    C     C_R   0.500035 0.219973 0.499778 0.830479
C2    C     C_R   0.499983 0.780027 0.500224 0.839603
O5    O     O_R   0.417880 0.500000 0.642820 -0.561360
O6    O     O_R   0.582120 0.500000 0.357180 -0.560193
O7    O     O_R   0.582120 0.500000 0.642820 -0.563692
O8    O     O_R   0.417880 0.500000 0.357180 -0.562115
C3    C     C_R   0.207979 0.505987 0.499304 0.046325
C4    C     C_R   0.790816 0.490216 0.502016 0.077698
C5    C     C_R   0.390438 0.500812 0.499883 0.881660
C6    C     C_R   0.609361 0.498645 0.500122 0.901880
Cu1   Cu    Cu3+1 0.500000 0.500000 0.669080 1.028338
Cu2   Cu    Cu3+1 0.500000 0.500000 0.330920 1.030655
C7    C     C_R   0.297140 0.544488 0.650227 -0.018314
C8    C     C_R   0.701731 0.427712 0.638613 -0.020259
C9    C     C_R   0.296978 0.464152 0.348350 -0.017443
C10   C     C_R   0.702541 0.558082 0.363261 -0.031498
C11   C     C_R   0.327438 0.503014 0.499538 -0.228172
C12   C     C_R   0.671961 0.494761 0.500591 -0.204647
C13   C     C_R   0.878341 0.612019 0.568513 0.654826
C14   C     C_R   0.119696 0.376668 0.455804 0.658171
C15   C     C_R   0.880232 0.372371 0.441957 0.676879
C16   C     C_R   0.117612 0.627482 0.546375 0.683987
N1    N     N_R   0.851442 0.491323 0.504476 -0.417749
N2    N     N_R   0.146954 0.503551 0.500204 -0.423552
C17   C     C_R   0.939946 0.371119 0.439789 -0.071184
C18   C     C_R   0.058120 0.624748 0.560680 -0.075296
C19   C     C_R   0.938142 0.618249 0.570959 -0.079516
C20   C     C_R   0.060000 0.373296 0.444124 -0.083353
C21   C     C_R   0.969031 0.495760 0.504738 -0.077393
C22   C     C_R   0.029015 0.497847 0.503289 -0.083838
C23   C     C_R   0.971040 0.250221 0.372718 0.179458
C24   C     C_R   0.027375 0.744545 0.631242 0.181684
C25   C     C_R   0.968090 0.741423 0.637677 0.087633
C26   C     C_R   0.030385 0.250765 0.374953 0.091705
C27   C     C_1   0.500026 0.065376 0.499696 -0.162844
C28   C     C_1   0.500007 0.934627 0.500312 -0.160914
C29   C     C_R   0.237749 0.539500 0.650204 0.581775
C30   C     C_R   0.761186 0.426869 0.638039 0.580106
C31   C     C_R   0.237621 0.472161 0.348187 0.585555
C32   C     C_R   0.761743 0.554937 0.365091 0.572525
N3    N     N_1   0.500000 0.500000 0.076820 -0.031597
N4    N     N_1   0.500000 0.500000 0.923180 -0.031373
O9    O     O_2   0.846603 0.724759 0.628518 -0.516297
O10   O     O_2   0.150761 0.254298 0.426087 -0.507921
O11   O     O_2   0.850608 0.256320 0.382282 -0.464709
O12   O     O_2   0.146249 0.753106 0.576192 -0.458433
N5    N     N_3   0.942498 0.125572 0.299366 -0.481843
H1    H     H_    0.955453 0.030766 0.364660 0.232850
H2    H     H_    0.954475 0.115178 0.170335 0.253776
N6    N     N_3   0.056394 0.868497 0.704503 -0.483480
H3    H     H_    0.041949 0.964329 0.644355 0.232492
H4    H     H_    0.046237 0.875468 0.835263 0.251244
N7    N     N_3   0.940138 0.865654 0.715687 -0.584324
H5    H     H_    0.916485 0.830671 0.821316 0.288768
H6    H     H_    0.914594 0.918483 0.624846 0.284701
N8    N     N_3   0.058861 0.127334 0.296823 -0.586294
H7    H     H_    0.081442 0.068916 0.390032 0.284001
H8    H     H_    0.085694 0.164469 0.199558 0.287409
F1    F     F_    0.208456 0.568014 0.797155 -0.598670
F2    F     F_    0.790688 0.363842 0.768873 -0.619716
F3    F     F_    0.208151 0.444240 0.201412 -0.603269
F4    F     F_    0.791228 0.616435 0.234080 -0.616334
N9    N     N_3   0.326820 0.594081 0.801505 -0.508839
H9    H     H_    0.344794 0.695841 0.772237 0.225465
H10   H     H_    0.299172 0.613654 0.903916 0.292723
N10   N     N_3   0.671316 0.358137 0.776156 -0.523752
H11   H     H_    0.653795 0.261381 0.726635 0.222769
H12   H     H_    0.698423 0.327162 0.876139 0.286361
N11   N     N_3   0.326428 0.413341 0.197011 -0.508845
H13   H     H_    0.298732 0.396479 0.094072 0.293163
H14   H     H_    0.343763 0.310123 0.225623 0.226697
N12   N     N_3   0.673604 0.629058 0.223818 -0.518865
H15   H     H_    0.686931 0.738500 0.218716 0.261584
H16   H     H_    0.685664 0.577154 0.109083 0.275174

loop_
_geom_bond_atom_site_label_1
_geom_bond_atom_site_label_2
_geom_bond_distance
_ccdc_geom_bond_type
C8    N10   1.439204 S    
N11   H13   1.044229 S    
C32   F4    1.358351 S    
O3    C2    1.272238 A    
N3    N4    1.193715 T    
O1    C1    1.270650 A    
C24   C25   1.402545 A    
C9    C11   1.421319 A    
N12   H16   1.045799 S    
C16   O12   1.349371 S    
N7    H6    1.044638 S    
Cu1   Cu2   2.627353 S    
C17   C21   1.418763 A    
C10   N12   1.433873 S    
N8    H8    1.045460 S    
C4    C30   1.396539 A    
C19   C21   1.422048 A    
C3    C31   1.400036 A    
N10   H11   1.045575 S    
O1    Cu1   1.932379 S    
C20   C26   1.421665 A    
O2    Cu2   1.932378 S    
O5    Cu1   1.951223 S    
O6    Cu2   1.951221 S    
N11   H14   1.045700 S    
O2    C2    1.270669 A    
N9    H9    1.045709 S    
C10   C32   1.399327 A    
C9    C31   1.404259 A    
C7    C29   1.404611 A    
C15   C17   1.411364 A    
N6    H4    1.045785 S    
C7    N9    1.440034 S    
C13   O9    1.347805 S    
C18   C22   1.416120 A    
C4    N1    1.433004 S    
N5    H1    1.045491 S    
C14   O10   1.347817 S    
C9    N11   1.440031 S    
C23   C26   1.402650 A    
N12   H15   1.045650 S    
C27   C28   1.187842 T    
C7    C11   1.421466 A    
C19   C25   1.423179 A    
N8    H7    1.043938 S    
N9    H10   1.044224 S    
C13   C19   1.414868 A    
O4    Cu2   1.934107 S    
O7    C6    1.282742 A    
C14   C20   1.414128 A    
C31   F3    1.359246 S    
C21   C22   1.417928 A    
C5    C11   1.488903 S    
C26   N8    1.437001 S    
C10   C12   1.415575 A    
C16   C18   1.410896 A    
C13   N1    1.362674 A    
C1    C27   1.404455 S    
C23   N5    1.436961 S    
C2    C28   1.404474 S    
C29   F1    1.359147 S    
C30   F2    1.358556 S    
O3    Cu1   1.934106 S    
N6    H3    1.045163 S    
O6    C6    1.283071 A    
C8    C12   1.419336 A    
C14   N2    1.366629 A    
O4    C1    1.272248 A    
O8    C5    1.285172 A    
Cu2   N3    1.974243 S    
C15   N1    1.361696 A    
C17   C23   1.415715 A    
C16   N2    1.365642 A    
C18   C24   1.413993 A    
C6    C12   1.479658 S    
C8    C30   1.405123 A    
O7    Cu1   1.951730 S    
C4    C32   1.395782 A    
O8    Cu2   1.951733 S    
N7    H5    1.045244 S    
C3    N2    1.442566 S    
C3    C29   1.399907 A    
C15   O11   1.349261 S    
C24   N6    1.437072 S    
O5    C5    1.285383 A    
N10   H12   1.044731 S    
Cu1   N4    1.974243 S    
N5    H2    1.045780 S    
C25   N7    1.436559 S    
C20   C22   1.419263 A    
