data_str_m2_o1_o22_f0_pcu.sym.180
_audit_creation_date              2012-12-10T17:59:18-0500
_audit_creation_method            fapswitch 2.2
_symmetry_space_group_name_H-M    P1
_symmetry_Int_Tables_number       1
_space_group_crystal_system       triclinic
_cell_length_a                    10.841055
_cell_length_b                    9.631535
_cell_length_c                    10.765576
_cell_angle_alpha                 91.769977
_cell_angle_beta                  92.857826
_cell_angle_gamma                 90.130828
_cell_volume                      1122.15648953

loop_
_atom_site_label
_atom_site_type_symbol
_atom_type_description
_atom_site_fract_x
_atom_site_fract_y
_atom_site_fract_z
_atom_type_partial_charge
C1    C     C_R   0.262530 0.499992 0.498314 0.854978
C2    C     C_3   0.572923 0.623732 0.939451 -0.407005
C3    C     C_R   0.063137 0.377316 0.467499 -0.267195
C4    C     C_R   0.065825 0.626784 0.502440 -0.212231
C5    C     C_R   0.935032 0.378173 0.456522 0.421702
C6    C     C_R   0.937779 0.629165 0.494946 0.451298
C7    C     C_R   0.871277 0.502420 0.482247 -0.254964
C8    C     C_R   0.128648 0.500870 0.491571 -0.138898
C9    C     C_R   0.418457 0.071045 0.423069 -0.014694
C10   C     C_R   0.425964 0.922653 0.416015 -0.020737
C11   C     C_R   0.573785 0.930308 0.583950 0.486081
C12   C     C_R   0.584559 0.079076 0.572779 0.452829
C13   C     C_R   0.501912 0.498042 0.260499 0.724620
C14   C     C_R   0.737330 0.500361 0.493709 0.841315
C15   C     C_R   0.502081 0.500570 0.740218 0.771982
C16   C     C_3   0.369422 0.514369 0.067641 -0.439286
C17   C     C_3   0.553858 0.354901 0.071859 -0.379543
C18   C     C_3   0.366530 0.498933 0.923542 -0.153845
C19   C     C_3   0.564672 0.360489 0.928861 -0.135098
C20   C     C_3   0.587520 0.612052 0.080683 -0.387268
C21   C     C_3   0.502909 0.494464 0.123108 0.130276
C22   C     C_3   0.502120 0.497419 0.879163 -0.028990
Cu1   Cu    Cu3+1 0.500020 0.640660 0.500000 0.987499
Cu2   Cu    Cu3+1 0.500020 0.359340 0.500000 0.982032
H1    H     H_    0.335380 0.618311 0.098070 0.192581
H2    H     H_    0.644406 0.332457 0.120090 0.180122
H3    H     H_    0.306487 0.435795 0.104607 0.148535
H4    H     H_    0.490431 0.268539 0.092907 0.171029
H5    H     H_    0.323334 0.396568 0.896322 0.169840
H6    H     H_    0.513705 0.268771 0.886597 0.151395
H7    H     H_    0.564517 0.714280 0.124534 0.212959
H8    H     H_    0.685610 0.589778 0.108559 0.151031
H9    H     H_    0.516849 0.716528 0.922236 0.183424
H10   H     H_    0.664757 0.636868 0.899770 0.176328
H11   H     H_    0.110615 0.279881 0.455116 0.214375
H12   H     H_    0.115439 0.724259 0.516498 0.183337
N1    N     N_R   0.500030 0.852070 0.500030 -0.267103
N2    N     N_R   0.500030 0.147930 0.500030 -0.260689
O1    O     O_R   0.319660 0.618740 0.499990 -0.614655
O2    O     O_R   0.319660 0.381260 0.499990 -0.607080
O3    O     O_R   0.499990 0.618790 0.317690 -0.610002
O4    O     O_R   0.499990 0.381210 0.317690 -0.622878
O5    O     O_R   0.680370 0.618830 0.500010 -0.511126
O6    O     O_R   0.680370 0.381170 0.500010 -0.497725
O7    O     O_R   0.500030 0.618780 0.682310 -0.535248
O8    O     O_R   0.500030 0.381220 0.682310 -0.562905
O9    O     O_3   0.636803 0.864723 0.679920 -0.537239
C23   C     C_3   0.594438 0.917637 0.794361 -0.326511
H13   H     H_    0.495248 0.891818 0.802643 0.150037
H14   H     H_    0.604733 0.031191 0.809045 0.201480
H15   H     H_    0.652655 0.874729 0.871091 0.188469
O10   O     O_3   0.670015 0.159054 0.644236 -0.574714
C24   C     C_3   0.790574 0.103824 0.641375 -0.096524
H16   H     H_    0.857494 0.190711 0.656046 0.193088
H17   H     H_    0.809311 0.050384 0.551464 0.176380
H18   H     H_    0.809267 0.033143 0.719312 0.195159
C25   C     C_2   0.286129 0.610003 0.865083 0.373411
H19   H     H_    0.307398 0.719168 0.882524 0.090410
O11   O     O_2   0.195497 0.577805 0.798497 -0.549563
C26   C     C_2   0.697725 0.344803 0.893736 0.425580
H20   H     H_    0.740451 0.420346 0.836618 0.073377
O12   O     O_2   0.757767 0.244019 0.926431 -0.574671
O13   O     O_3   0.872615 0.256697 0.422239 -0.581690
C27   C     C_3   0.874430 0.237382 0.291996 -0.265802
H21   H     H_    0.969076 0.212063 0.263135 0.196210
H22   H     H_    0.838522 0.330052 0.242624 0.140230
H23   H     H_    0.813478 0.148251 0.263115 0.182713
O14   O     O_3   0.878855 0.756143 0.501239 -0.543373
C28   C     C_3   0.868808 0.808306 0.379940 -0.273603
H24   H     H_    0.826521 0.731147 0.311018 0.134879
H25   H     H_    0.960566 0.842383 0.350065 0.173989
H26   H     H_    0.807136 0.899858 0.379936 0.176919
C29   C     C_2   0.318258 0.140517 0.349134 0.443984
H27   H     H_    0.331557 0.238791 0.307408 0.106075
O15   O     O_2   0.216086 0.087036 0.334433 -0.599961
C30   C     C_2   0.356820 0.846521 0.312944 0.506656
H28   H     H_    0.298789 0.758733 0.329288 0.082903
O16   O     O_2   0.364273 0.883173 0.205957 -0.598701

loop_
_geom_bond_atom_site_label_1
_geom_bond_atom_site_label_2
_ccdc_geom_bond_type
C4    H12   S    
C16   C21   S    
Cu1   O7    S    
C1    C8    S    
Cu2   O4    S    
C29   H27   S    
C11   O9    S    
C4    C8    A    
C13   O3    A    
C24   H16   S    
C10   N1    A    
C17   H2    S    
C30   O16   D    
C25   O11   D    
Cu1   O5    S    
C5    O13   S    
C26   O12   D    
C28   H25   S    
C1    O2    A    
Cu2   O2    S    
C10   C30   S    
C15   C22   S    
O14   C28   S    
C2    C22   S    
Cu2   N2    S    
Cu1   Cu2   S    
C11   N1    A    
C7    C14   S    
C9    C10   A    
C2    H10   S    
C16   H3    S    
C23   H14   S    
C29   O15   D    
C9    C29   S    
C13   O4    A    
C12   O10   S    
C24   H17   S    
C23   H15   S    
C2    C20   S    
C27   H23   S    
C19   C22   S    
C30   H28   S    
C4    C6    A    
C3    C8    A    
C5    C7    A    
Cu1   N1    S    
C17   C21   S    
C26   H20   S    
C27   H22   S    
C28   H26   S    
C18   C25   S    
O9    C23   S    
C3    H11   S    
C13   C21   S    
C18   H5    S    
C2    H9    S    
C23   H13   S    
Cu2   O6    S    
C15   O7    A    
O10   C24   S    
C14   O6    A    
C20   H8    S    
C24   H18   S    
C16   H1    S    
C18   C22   S    
C17   H4    S    
C3    C5    A    
C11   C12   A    
C6    C7    A    
C19   C26   S    
Cu1   O3    S    
Cu2   O8    S    
C27   H21   S    
C25   H19   S    
Cu1   O1    S    
C6    O14   S    
C9    N2    A    
C17   C19   S    
C12   N2    A    
C28   H24   S    
C1    O1    A    
O13   C27   S    
C20   C21   S    
C16   C18   S    
C15   O8    A    
C19   H6    S    
C14   O5    A    
C20   H7    S    
