data_str_m2_o4_o18_f0_pcu.sym.240
_audit_creation_date              2012-12-10T19:01:24-0500
_audit_creation_method            fapswitch 2.2
_symmetry_space_group_name_H-M    P1
_symmetry_Int_Tables_number       1
_space_group_crystal_system       triclinic
_cell_length_a                    9.652049
_cell_length_b                    10.846367
_cell_length_c                    16.36657
_cell_angle_alpha                 87.86313
_cell_angle_beta                  70.914815
_cell_angle_gamma                 91.15683
_cell_volume                      1617.15306732

loop_
_atom_site_label
_atom_site_type_symbol
_atom_type_description
_atom_site_fract_x
_atom_site_fract_y
_atom_site_fract_z
_atom_type_partial_charge
C1    C     C_R   0.997633 0.262660 0.501904 0.817994
C2    C     C_R   0.667875 0.515018 0.901953 -0.065616
C3    C     C_R   0.775483 0.496747 0.942300 0.043604
C4    C     C_R   0.518641 0.524077 0.955660 -0.024742
C5    C     C_R   0.484526 0.512209 0.047400 0.014619
C6    C     C_R   0.599637 0.532174 0.080995 -0.347802
C7    C     C_R   0.744521 0.523430 0.028966 0.491602
C8    C     C_R   0.400288 0.535381 0.922855 0.361299
C9    C     C_R   0.261324 0.492673 0.973816 -0.092967
C10   C     C_R   0.231054 0.457683 0.060935 -0.110558
C11   C     C_R   0.337445 0.481325 0.101031 -0.093567
C12   C     C_R   0.914137 0.497653 0.669840 0.813667
C13   C     C_R   0.096690 0.398233 0.109657 0.432551
C14   C     C_R   0.043379 0.411154 0.199721 0.273268
C15   C     C_R   0.290745 0.466413 0.192623 0.329057
C16   C     C_R   0.116306 0.067032 0.507945 0.023619
C17   C     C_R   0.990268 0.129231 0.512317 -0.239843
C18   C     C_R   0.856536 0.061545 0.535992 -0.187895
C19   C     C_R   0.854018 0.932191 0.543612 0.393957
C20   C     C_R   0.989364 0.869606 0.522023 -0.268333
C21   C     C_R   0.116240 0.940300 0.515128 0.077122
C22   C     C_3   0.270094 0.939478 0.454021 0.155709
C23   C     C_R   0.997514 0.737135 0.505969 0.788974
C24   C     C_3   0.265130 0.079125 0.442019 0.317923
C25   C     C_R   0.613230 0.541884 0.429121 0.098138
C26   C     C_R   0.535956 0.444358 0.566388 0.356589
C27   C     C_R   0.387684 0.443427 0.566219 0.579387
C28   C     C_R   0.467925 0.537161 0.427455 0.128884
C29   C     C_3   0.489032 0.658985 0.379643 0.312062
C30   C     C_3   0.642595 0.667802 0.386540 -0.509620
C31   C     C_R   0.085228 0.487609 0.331115 0.892911
C32   C     C_R   0.861123 0.491336 0.763722 -0.097421
C33   C     C_R   0.139167 0.461210 0.239049 -0.247955
C34   C     C_R   0.910321 0.448385 0.895748 0.429316
C35   C     C_R   0.956991 0.455778 0.806518 -0.299668
C36   C     C_R   0.713476 0.509434 0.810940 -0.215843
Cu1   Cu    Cu3+1 0.140670 0.499980 0.500000 1.030117
Cu2   Cu    Cu3+1 0.859330 0.500020 0.500000 0.971523
H1    H     H_    0.754099 0.108307 0.547883 0.185980
H2    H     H_    0.280933 0.888791 0.394923 0.020502
H3    H     H_    0.260196 0.111847 0.377485 0.027409
H4    H     H_    0.408747 0.723643 0.416795 0.141432
H5    H     H_    0.732060 0.670639 0.323206 0.201722
H6    H     H_    0.654003 0.739069 0.431205 0.213389
H7    H     H_    0.174259 0.499558 0.946945 0.229157
H8    H     H_    0.065303 0.425896 0.771168 0.211823
H9    H     H_    0.637838 0.515824 0.775352 0.241569
H10   H     H_    0.581522 0.550554 0.147496 0.248490
N1    N     N_R   0.648210 0.500930 0.499430 -0.247576
N2    N     N_R   0.352300 0.500890 0.499430 -0.283114
O1    O     O_R   0.118810 0.319640 0.500000 -0.553392
O2    O     O_R   0.881230 0.319680 0.499990 -0.614667
O3    O     O_R   0.055580 0.499970 0.629840 -0.528040
O4    O     O_R   0.818000 0.500010 0.629830 -0.589943
O5    O     O_R   0.118770 0.680320 0.500010 -0.570932
O6    O     O_R   0.881190 0.680360 0.500000 -0.566913
O7    O     O_R   0.182000 0.499990 0.370170 -0.522193
O8    O     O_R   0.944420 0.500030 0.370160 -0.560071
O9    O     O_3   0.856007 0.536512 0.063774 -0.558764
C37   C     C_3   0.896442 0.662758 0.059263 -0.366696
H11   H     H_    0.803875 0.717306 0.098814 0.162973
H12   H     H_    0.937074 0.700317 0.991034 0.176937
H13   H     H_    0.987393 0.673047 0.086223 0.184154
O10   O     O_3   0.033662 0.314190 0.070460 -0.656573
H14   H     H_    0.969881 0.254347 0.114600 0.341651
O11   O     O_3   0.718756 0.871656 0.570119 -0.702895
H15   H     H_    0.724086 0.799093 0.607447 0.342345
O12   O     O_3   0.366016 0.904520 0.498637 -0.655762
H16   H     H_    0.466534 0.917934 0.456743 0.330926
O13   O     O_3   0.363292 0.144743 0.473652 -0.545344
C38   C     C_3   0.484035 0.191147 0.403691 -0.322320
H17   H     H_    0.449485 0.264181 0.365598 0.186015
H18   H     H_    0.538818 0.116376 0.361225 0.147958
H19   H     H_    0.565463 0.233671 0.429722 0.181313
O14   O     O_3   0.562079 0.389688 0.636692 -0.709416
H20   H     H_    0.654192 0.345485 0.614210 0.351000
O15   O     O_3   0.277340 0.395453 0.638272 -0.563309
C39   C     C_3   0.285570 0.266129 0.648813 -0.156858
H21   H     H_    0.195502 0.220276 0.631975 0.191017
H22   H     H_    0.267823 0.242447 0.718101 0.161961
H23   H     H_    0.391530 0.226731 0.610576 0.187519
O16   O     O_3   0.493206 0.645248 0.293536 -0.526706
C40   C     C_3   0.476256 0.760729 0.256028 -0.334103
H24   H     H_    0.536683 0.837648 0.274574 0.135080
H25   H     H_    0.357904 0.779788 0.273107 0.166035
H26   H     H_    0.520752 0.756957 0.184626 0.180632
O17   O     O_3   0.385241 0.436808 0.237128 -0.686587
H27   H     H_    0.451662 0.374243 0.203884 0.305000
O18   O     O_3   0.913872 0.351901 0.251657 -0.595189
C41   C     C_3   0.791973 0.406185 0.237204 -0.174557
H28   H     H_    0.803510 0.508575 0.229676 0.188601
H29   H     H_    0.693783 0.383053 0.294084 0.159663
H30   H     H_    0.770262 0.366527 0.180989 0.192457
O19   O     O_3   0.982681 0.377023 0.938223 -0.664196
H31   H     H_    0.064569 0.335702 0.895796 0.325966
O20   O     O_3   0.412242 0.595690 0.845210 -0.719539
H32   H     H_    0.488277 0.662694 0.835206 0.322919

loop_
_geom_bond_atom_site_label_1
_geom_bond_atom_site_label_2
_ccdc_geom_bond_type
O17   H27   S    
C9    H7    S    
C16   C21   A    
C29   H4    S    
C19   C20   A    
C8    O20   S    
C4    C8    A    
C14   C33   A    
C24   O13   S    
C23   O6    A    
Cu2   N1    S    
O15   C39   S    
C25   C28   A    
C26   C27   A    
Cu1   Cu2   S    
C6    H10   S    
C19   O11   S    
C37   H13   S    
C32   C36   A    
C31   O8    A    
C28   C29   S    
C5    C11   A    
C3    C7    A    
C5    C6    A    
Cu1   O1    S    
C39   H22   S    
Cu2   O2    S    
C36   H9    S    
C37   H12   S    
C34   C35   A    
C18   H1    S    
Cu2   O8    S    
C11   C15   A    
C8    C9    A    
C31   C33   S    
O13   C38   S    
C9    C10   A    
C12   O3    A    
C27   N2    A    
Cu1   O3    S    
O11   H15   S    
O9    C37   S    
C16   C24   S    
C21   C22   S    
C12   C32   S    
C24   H3    S    
C30   H6    S    
C28   N2    A    
C7    O9    S    
C26   O14   S    
Cu1   O7    S    
C32   C35   A    
C26   N1    A    
C38   H18   S    
C39   H21   S    
C18   C19   A    
C3    C34   A    
C37   H11   S    
C2    C4    A    
O14   H20   S    
C14   O18   S    
C29   C30   S    
C41   H29   S    
C40   H24   S    
Cu2   O4    S    
C20   C23   S    
C22   H2    S    
O20   H32   S    
C17   C18   A    
C1    O1    A    
C22   O12   S    
C40   H25   S    
C22   C24   S    
C30   H5    S    
C41   H30   S    
C15   O17   S    
C2    C36   A    
C25   C30   S    
O12   H16   S    
C34   O19   S    
C4    C5    A    
C27   O15   S    
C10   C13   A    
C38   H19   S    
C23   O5    A    
C6    C7    A    
C1    C17   S    
O10   H14   S    
C31   O7    A    
C2    C3    A    
C29   O16   S    
Cu1   N2    S    
C39   H23   S    
C41   H28   S    
C16   C17   A    
C13   O10   S    
O19   H31   S    
C1    O2    A    
C25   N1    A    
C10   C11   A    
Cu1   O5    S    
C38   H17   S    
C40   H26   S    
Cu2   O6    S    
C20   C21   A    
O16   C40   S    
O18   C41   S    
C13   C14   A    
C35   H8    S    
C15   C33   A    
C12   O4    A    
