data_str_m2_o4_o16_f0_pcu.sym.224
_audit_creation_date              2012-12-10T19:00:15-0500
_audit_creation_method            fapswitch 2.2
_symmetry_space_group_name_H-M    P1
_symmetry_Int_Tables_number       1
_space_group_crystal_system       triclinic
_cell_length_a                    9.529498
_cell_length_b                    10.81746
_cell_length_c                    13.477171
_cell_angle_alpha                 90.18505
_cell_angle_beta                  72.763835
_cell_angle_gamma                 90.042852
_cell_volume                      1326.89566191

loop_
_atom_site_label
_atom_site_type_symbol
_atom_type_description
_atom_site_fract_x
_atom_site_fract_y
_atom_site_fract_z
_atom_type_partial_charge
C1    C     C_R   0.499121 0.737719 0.502319 0.793044
C2    C     C_R   0.435293 0.491154 0.978929 0.070799
C3    C     C_R   0.462999 0.529357 0.874404 0.105810
C4    C     C_R   0.539938 0.520396 0.032405 0.085041
C5    C     C_R   0.664088 0.594382 0.983143 0.169010
C6    C     C_R   0.680314 0.642103 0.884658 -0.206206
C7    C     C_R   0.579698 0.612639 0.832186 -0.182477
C8    C     C_R   0.525265 0.478898 0.133661 -0.242538
C9    C     C_R   0.747060 0.585908 0.136558 -0.149580
C10   C     C_R   0.373005 0.484559 0.814753 -0.187188
C11   C     C_R   0.368191 0.936281 0.514627 0.120635
C12   C     C_R   0.421126 0.498515 0.700275 0.766096
C13   C     C_R   0.494830 0.870782 0.513296 -0.098700
C14   C     C_R   0.615753 0.935740 0.526848 -0.218425
C15   C     C_R   0.615891 0.064625 0.526446 -0.190420
C16   C     C_R   0.495125 0.129203 0.512480 -0.110597
C17   C     C_R   0.368452 0.063490 0.514020 0.172862
C18   C     C_3   0.276172 0.069054 0.441834 -0.462744
C19   C     C_3   0.275209 0.928736 0.442972 -0.464321
C20   C     C_R   0.945058 0.405602 0.454059 0.156341
C21   C     C_R   0.902658 0.585730 0.554795 -0.054291
C22   C     C_R   0.051519 0.585477 0.555097 -0.032799
C23   C     C_R   0.499292 0.262248 0.501800 0.818361
C24   C     C_R   0.093477 0.406587 0.452639 0.217565
C25   C     C_3   0.145226 0.373901 0.339997 -0.591631
C26   C     C_3   0.984998 0.370516 0.342170 0.248365
C27   C     C_R   0.578418 0.501251 0.300160 0.810085
C28   C     C_R   0.768546 0.623384 0.034390 -0.157625
C29   C     C_R   0.622305 0.517259 0.187442 -0.033738
C30   C     C_R   0.244150 0.415368 0.863920 -0.206036
C31   C     C_R   0.207986 0.390180 0.970767 -0.027548
C32   C     C_R   0.303358 0.426891 0.026519 -0.249164
Cu1   Cu    Cu3+1 0.359330 0.500020 0.500010 0.972812
Cu2   Cu    Cu3+1 0.640670 0.499980 0.499990 0.964729
H1    H     H_    0.823593 0.615837 0.177271 0.150120
H2    H     H_    0.712960 0.112904 0.531914 0.171480
H3    H     H_    0.166374 0.110395 0.479341 0.205067
H4    H     H_    0.336526 0.108222 0.364822 0.192369
H5    H     H_    0.164970 0.889039 0.481678 0.195123
H6    H     H_    0.334033 0.886656 0.366560 0.204242
H7    H     H_    0.829047 0.656659 0.597360 0.126177
H8    H     H_    0.089499 0.655991 0.598103 0.132928
H9    H     H_    0.205733 0.451302 0.292217 0.189809
H10   H     H_    0.201627 0.283008 0.325121 0.201322
H11   H     H_    0.955322 0.442309 0.293220 0.188699
H12   H     H_    0.770816 0.703399 0.848116 0.142459
H13   H     H_    0.863816 0.679261 0.996802 0.142410
H14   H     H_    0.437955 0.418134 0.174115 0.137347
H15   H     H_    0.270791 0.403223 0.107561 0.151700
H16   H     H_    0.593759 0.658237 0.758705 0.152897
H17   H     H_    0.712757 0.887678 0.532503 0.159084
N1    N     N_R   0.852320 0.499070 0.499340 -0.206418
N2    N     N_R   0.148230 0.499110 0.499340 -0.170458
O1    O     O_R   0.381190 0.680360 0.500000 -0.586413
O2    O     O_R   0.618780 0.680320 0.499990 -0.598845
O3    O     O_R   0.323230 0.500000 0.650990 -0.564547
O4    O     O_R   0.560820 0.499960 0.650980 -0.572045
O5    O     O_R   0.381220 0.319680 0.500010 -0.559264
O6    O     O_R   0.618810 0.319640 0.500000 -0.563569
O7    O     O_R   0.439180 0.500040 0.349020 -0.589043
O8    O     O_R   0.676770 0.500000 0.349010 -0.576400
O9    O     O_3   0.934975 0.251705 0.326128 -0.664535
H18   H     H_    0.959083 0.193398 0.375546 0.315457
C33   C     C_2   0.146080 0.367923 0.804682 0.980646
O10   O     O_2   0.024303 0.413244 0.819263 -0.552765
O11   O     O_R   0.190338 0.271009 0.733413 -0.707837
H19   H     H_    0.291553 0.238565 0.729585 0.278498
C34   C     C_2   0.073762 0.319576 0.025545 0.876317
O12   O     O_2   0.998716 0.352938 0.111473 -0.585797
O13   O     O_R   0.033533 0.214564 0.979625 -0.746395
H20   H     H_    0.939968 0.175100 0.024875 0.344650

loop_
_geom_bond_atom_site_label_1
_geom_bond_atom_site_label_2
_ccdc_geom_bond_type
C17   C18   S    
C23   O5    A    
C2    C4    A    
C1    O1    A    
C8    H14   S    
C28   H13   S    
C9    C28   A    
Cu1   O5    S    
O9    H18   S    
C30   C33   S    
Cu1   O7    S    
C5    C28   A    
C27   C29   S    
C10   C30   A    
Cu2   N1    S    
C14   H17   S    
C9    C29   A    
C30   C31   A    
C4    C8    A    
C33   O10   D    
C25   H9    S    
Cu1   O3    S    
C2    C3    A    
C1    O2    A    
C16   C23   S    
Cu2   O2    S    
C20   N1    A    
C3    C10   A    
C12   O3    A    
C13   C14   A    
C23   O6    A    
C11   C13   A    
C11   C19   S    
C22   H8    S    
C20   C26   S    
Cu2   O4    S    
C21   H7    S    
C12   O4    A    
C19   H5    S    
C25   H10   S    
C34   O13   S    
C18   H3    S    
C21   C22   A    
Cu1   Cu2   S    
C22   N2    A    
C3    C7    A    
C27   O7    A    
Cu2   O8    S    
Cu1   N2    S    
C5    C6    A    
C10   C12   S    
C32   H15   S    
C1    C13   S    
C19   H6    S    
C8    C29   A    
C15   C16   A    
C16   C17   A    
C20   C24   A    
C15   H2    S    
O13   H20   S    
O11   H19   S    
C24   C25   S    
C24   N2    A    
C2    C32   A    
C18   C19   S    
Cu1   O1    S    
C9    H1    S    
C26   O9    S    
C14   C15   A    
C11   C17   A    
C6    H12   S    
C26   H11   S    
C25   C26   S    
C18   H4    S    
Cu2   O6    S    
C31   C34   S    
C34   O12   D    
C21   N1    A    
C6    C7    A    
C31   C32   A    
C7    H16   S    
C33   O11   S    
C4    C5    A    
C27   O8    A    
