data_str_m2_o4_o24_f0_pcu.sym.43
_audit_creation_date              2012-10-26T20:32:01-0400
_audit_creation_method            fapswitch 2.2
_symmetry_space_group_name_H-M    P1
_symmetry_Int_Tables_number       1
_space_group_crystal_system       triclinic
_cell_length_a                    10.63528
_cell_length_b                    10.813713
_cell_length_c                    9.562405
_cell_angle_alpha                 90.032164
_cell_angle_beta                  89.621723
_cell_angle_gamma                 90.476146
_cell_volume                      1099.68014361

loop_
_atom_site_label
_atom_site_type_symbol
_atom_type_description
_atom_site_fract_x
_atom_site_fract_y
_atom_site_fract_z
_atom_type_partial_charge
Br1   Br    Br    0.808044 0.505666 0.103302 -0.589062
C1    C     C_R   0.501558 0.262386 0.499903 0.543227
C2    C     C_R   0.514169 0.936397 0.624815 0.008024
C3    C     C_3   0.428140 0.929312 0.748684 -0.264148
C4    C     C_R   0.259468 0.499134 0.500279 0.547989
C5    C     C_3   0.428829 0.069719 0.748926 -0.269814
C6    C     C_R   0.553458 0.595539 0.072177 0.165620
C7    C     C_R   0.438230 0.410780 0.074837 0.005315
C8    C     C_R   0.439113 0.410183 0.926044 0.004519
C9    C     C_R   0.547214 0.599081 0.925457 0.128636
C10   C     C_3   0.675364 0.653365 0.910699 -0.237987
C11   C     C_3   0.688582 0.637306 0.067605 0.016415
C12   C     C_3   0.961825 0.609035 0.453214 0.005214
C13   C     C_R   0.501255 0.737585 0.499895 0.546289
C14   C     C_R   0.740669 0.501005 0.499981 0.560996
C15   C     C_3   0.039982 0.390692 0.549297 -0.140382
C16   C     C_3   0.957698 0.409008 0.418240 -0.104299
C17   C     C_3   0.877645 0.501718 0.500926 0.044644
C18   C     C_3   0.958080 0.483204 0.632231 -0.134632
C19   C     C_3   0.043763 0.591596 0.583928 -0.134178
C20   C     C_R   0.918892 0.735074 0.408591 0.046023
C21   C     C_R   0.857723 0.811754 0.505600 -0.099445
C22   C     C_R   0.825877 0.932596 0.469099 -0.110396
C23   C     C_3   0.043167 0.517584 0.369131 -0.089230
C24   C     C_R   0.851685 0.976637 0.334549 -0.106547
C25   C     C_R   0.910820 0.900268 0.236763 -0.126414
C26   C     C_R   0.945374 0.780215 0.273798 -0.080010
C27   C     C_3   0.122864 0.499169 0.500606 0.025993
C28   C     C_R   0.514695 0.063625 0.624879 0.017540
C29   C     C_R   0.512132 0.129253 0.499312 0.003991
C30   C     C_R   0.525556 0.064479 0.372629 -0.169010
C31   C     C_R   0.524800 0.935673 0.372549 -0.153323
C32   C     C_R   0.511103 0.870810 0.499234 0.011905
Cu1   Cu    Cu3+1 0.499990 0.499980 0.640670 0.938186
Cu2   Cu    Cu3+1 0.500010 0.500020 0.359330 0.974069
H1    H     H_    0.919914 0.333828 0.351043 0.145496
H2    H     H_    0.075363 0.301003 0.588692 0.111278
H3    H     H_    0.921506 0.468957 0.740063 0.151298
H4    H     H_    0.081969 0.666317 0.651528 0.113379
H5    H     H_    0.081391 0.529675 0.261679 0.142237
H6    H     H_    0.531268 0.112591 0.273447 0.135985
H7    H     H_    0.530402 0.887567 0.273342 0.130859
H8    H     H_    0.334903 0.888114 0.723110 0.138475
H9    H     H_    0.837030 0.778769 0.610271 0.099947
H10   H     H_    0.781025 0.992127 0.545101 0.119173
H11   H     H_    0.826023 0.069943 0.306218 0.119122
H12   H     H_    0.474871 0.888991 0.841544 0.130294
H13   H     H_    0.930955 0.934466 0.132583 0.108752
H14   H     H_    0.993069 0.723377 0.197352 0.131692
H15   H     H_    0.335944 0.110346 0.723754 0.130198
H16   H     H_    0.476225 0.110083 0.841840 0.133765
H17   H     H_    0.389812 0.337454 0.130723 0.108671
H18   H     H_    0.391621 0.336279 0.870862 0.107742
H19   H     H_    0.740034 0.595930 0.847144 0.190976
H20   H     H_    0.672266 0.751908 0.877954 0.082542
H21   H     H_    0.705405 0.725469 0.124432 0.125080
N1    N     N_R   0.500800 0.500930 0.147930 -0.207910
N2    N     N_R   0.500800 0.500890 0.852020 -0.222925
O1    O     O_R   0.500000 0.319640 0.618810 -0.504525
O2    O     O_R   0.500010 0.319680 0.381230 -0.510918
O3    O     O_R   0.316850 0.499950 0.618770 -0.503627
O4    O     O_R   0.316860 0.499990 0.381190 -0.514098
O5    O     O_R   0.499990 0.680320 0.618770 -0.505512
O6    O     O_R   0.500000 0.680360 0.381190 -0.511860
O7    O     O_R   0.683140 0.500010 0.618810 -0.521080
O8    O     O_R   0.683150 0.500050 0.381230 -0.440225

loop_
_geom_bond_atom_site_label_1
_geom_bond_atom_site_label_2
_ccdc_geom_bond_type
C15   C27   S    
C14   C17   S    
C10   C11   S    
C28   C29   A    
C22   H10   S    
C18   H3    S    
C7    N1    A    
C6    C9    A    
C4    C27   S    
C19   C27   S    
C7    H17   S    
C30   C31   A    
C12   C19   S    
C25   H13   S    
C15   H2    S    
Cu2   N1    S    
C13   O6    A    
C31   C32   A    
C13   C32   S    
Cu1   Cu2   S    
C16   C17   S    
C20   C26   A    
C4    O3    A    
C11   H21   S    
C20   C21   A    
C5    H15   S    
Cu1   N2    S    
C10   H19   S    
C25   C26   A    
Cu2   O6    S    
Br1   C11   S    
C12   C17   S    
C15   C18   S    
C13   O5    A    
Cu1   O7    S    
Cu1   O5    S    
C23   H5    S    
C3    H8    S    
C4    O4    A    
C17   C18   S    
Cu2   O4    S    
C22   C24   A    
C16   H1    S    
C29   C30   A    
C5    H16   S    
C1    O2    A    
C6    C11   S    
C16   C23   S    
C8    H18   S    
C9    C10   S    
C2    C32   A    
C12   C20   S    
C2    C3    S    
C14   O7    A    
C15   C16   S    
C26   H14   S    
C5    C28   S    
C10   H20   S    
C14   O8    A    
C18   C19   S    
C3    C5    S    
C8    N2    A    
C2    C28   A    
C19   H4    S    
C31   H7    S    
C21   C22   A    
C7    C8    A    
C1    C29   S    
C30   H6    S    
Cu2   O8    S    
C9    N2    A    
C24   C25   A    
C1    O1    A    
Cu1   O1    S    
C24   H11   S    
C6    N1    A    
Cu1   O3    S    
C21   H9    S    
C23   C27   S    
C12   C23   S    
Cu2   O2    S    
C3    H12   S    
