data_str_m2_o1_o4_f0_pcu.sym.78
_audit_creation_date              2013-03-05T16:06:56-0500
_audit_creation_method            fapswitch 2.2
_symmetry_space_group_name_H-M    P1
_symmetry_Int_Tables_number       1
_space_group_crystal_system       triclinic
_cell_length_a                    11.169301
_cell_length_b                    9.676429
_cell_length_c                    11.10697
_cell_angle_alpha                 90.637786
_cell_angle_beta                  97.602028
_cell_angle_gamma                 89.210244
_cell_volume                      1189.71338784

loop_
_atom_site_label
_atom_site_type_symbol
_atom_site_description
_atom_site_fract_x
_atom_site_fract_y
_atom_site_fract_z
_atom_type_partial_charge
O1    O     O_R   0.319640 0.618740 0.499990 -0.526029
O2    O     O_R   0.680360 0.618740 0.500010 -0.491756
O3    O     O_R   0.319620 0.381170 0.499990 -0.516851
O4    O     O_R   0.680380 0.381170 0.500010 -0.582831
C1    C     C_R   0.262549 0.500970 0.502607 0.843453
C2    C     C_R   0.737581 0.499190 0.495509 0.848554
O5    O     O_R   0.499990 0.618810 0.319660 -0.562477
O6    O     O_R   0.500010 0.618810 0.680340 -0.576026
O7    O     O_R   0.499960 0.381240 0.319650 -0.591526
O8    O     O_R   0.500040 0.381240 0.680350 -0.494472
C3    C     C_R   0.499690 0.499953 0.262217 0.841151
C4    C     C_R   0.507226 0.500766 0.737943 0.837142
Cu1   Cu    Cu3+1 0.500000 0.640660 0.500000 1.102626
Cu2   Cu    Cu3+1 0.500000 0.359340 0.500000 1.055312
C5    C     C_R   0.453458 0.609844 0.054367 -0.163521
C6    C     C_R   0.473180 0.615482 0.932732 -0.058350
C7    C     C_R   0.502511 0.499729 0.128248 -0.173081
C8    C     C_R   0.516568 0.502578 0.872369 -0.198895
C9    C     C_R   0.562942 0.391614 0.072354 0.393811
C10   C     C_R   0.568016 0.391921 0.944032 0.421449
C11   C     C_3   0.521615 0.760998 0.948419 0.409864
C12   C     C_3   0.470625 0.764486 0.068462 0.450988
C13   C     C_R   0.064810 0.378516 0.504657 0.394032
C14   C     C_R   0.937745 0.378505 0.464128 0.269649
C15   C     C_R   0.872086 0.499628 0.490698 -0.278347
C16   C     C_R   0.128052 0.502985 0.501832 -0.270496
C17   C     C_R   0.936289 0.625148 0.502514 0.257312
C18   C     C_R   0.061158 0.627120 0.501804 0.196812
C19   C     C_R   0.405938 0.074757 0.438855 0.421821
C20   C     C_R   0.591869 0.075954 0.564809 0.430034
C21   C     C_R   0.403431 0.927302 0.444894 0.490341
C22   C     C_R   0.593334 0.926450 0.561395 0.441632
N1    N     N_R   0.500000 0.852070 0.500000 -0.247148
N2    N     N_R   0.500000 0.147940 0.500000 -0.280518
O9    O     O_3   0.635966 0.303735 0.148260 -0.609240
C23   C     C_3   0.615340 0.164831 0.115380 -0.130961
H1    H     H_    0.680923 0.129534 0.054998 0.243244
H2    H     H_    0.521061 0.144606 0.074025 0.218630
H3    H     H_    0.634597 0.103888 0.198855 0.205386
O10   O     O_3   0.632221 0.290137 0.890989 -0.545573
C24   C     C_3   0.752477 0.334197 0.893052 -0.146469
H4    H     H_    0.792720 0.370814 0.984828 0.196905
H5    H     H_    0.757889 0.416047 0.824550 0.151628
H6    H     H_    0.808362 0.245051 0.869366 0.180218
N3    N     N_R   0.654856 0.768417 0.966689 0.073907
O11   O     O_R   0.706982 0.884967 0.998737 -0.354482
O12   O     O_R   0.722301 0.657608 0.966503 -0.400170
N4    N     N_R   0.353893 0.839890 0.057638 0.091669
O13   O     O_R   0.351245 0.974232 0.057998 -0.363932
O14   O     O_R   0.252880 0.774668 0.027366 -0.346222
N5    N     N_R   0.464856 0.860855 0.858858 0.105684
O15   O     O_R   0.377604 0.823754 0.776293 -0.265118
O16   O     O_R   0.489529 0.991614 0.871790 -0.324100
N6    N     N_R   0.556800 0.808782 0.173551 0.126243
O17   O     O_R   0.659169 0.743620 0.203114 -0.244333
O18   O     O_R   0.528865 0.909402 0.242980 -0.462035
O19   O     O_3   0.118547 0.282663 0.587690 -0.599665
C25   C     C_3   0.102532 0.146288 0.545310 -0.018310
H7    H     H_    0.180660 0.083455 0.586984 0.249953
H8    H     H_    0.099649 0.136510 0.445258 0.199147
H9    H     H_    0.021289 0.102640 0.576456 0.145926
O20   O     O_3   0.909113 0.332979 0.345290 -0.563313
C26   C     C_3   0.851306 0.204741 0.339684 -0.162941
H10   H     H_    0.843401 0.167399 0.244441 0.212163
H11   H     H_    0.759347 0.214168 0.365822 0.199570
H12   H     H_    0.903959 0.124211 0.392854 0.134335
N7    N     N_R   0.877469 0.755471 0.512425 0.195177
O21   O     O_R   0.819868 0.810099 0.414503 -0.263019
O22   O     O_R   0.918702 0.836825 0.602153 -0.357452
N8    N     N_R   0.118124 0.758322 0.515746 0.191228
O23   O     O_R   0.178855 0.789394 0.620278 -0.244847
O24   O     O_R   0.074912 0.858545 0.444728 -0.347399
O25   O     O_3   0.302024 0.143599 0.390128 -0.579428
C27   C     C_3   0.309161 0.185900 0.270133 -0.160887
H13   H     H_    0.233265 0.141126 0.208455 0.182350
H14   H     H_    0.395406 0.158393 0.235227 0.178382
H15   H     H_    0.293968 0.299142 0.264488 0.163818
O26   O     O_3   0.671585 0.150907 0.646122 -0.531093
C28   C     C_3   0.792994 0.126582 0.629706 -0.220018
H16   H     H_    0.804685 0.068815 0.545283 0.186886
H17   H     H_    0.840349 0.070829 0.708997 0.197153
H18   H     H_    0.838446 0.227219 0.628350 0.154050
O27   O     O_3   0.294317 0.864103 0.420296 -0.531255
C29   C     C_3   0.268815 0.826864 0.297650 -0.017878
H19   H     H_    0.192960 0.753179 0.286356 0.173485
H20   H     H_    0.344358 0.771364 0.265784 0.164916
H21   H     H_    0.239250 0.917440 0.241884 0.191083
O28   O     O_3   0.695545 0.856608 0.607630 -0.546688
C30   C     C_3   0.704736 0.848052 0.733512 -0.087935
H22   H     H_    0.800788 0.834787 0.772162 0.219062
H23   H     H_    0.659982 0.753574 0.754552 0.187984
H24   H     H_    0.670652 0.941403 0.777355 0.210922

loop_
_geom_bond_atom_site_label_1
_geom_bond_atom_site_label_2
_geom_bond_distance
_ccdc_geom_bond_type
C12   N4    1.476828 S    
C26   H11   1.106026 S    
O10   C24   1.412036 S    
O6    Cu1   2.016483 S    
C1    C16   1.500974 S    
O25   C27   1.411166 S    
O9    C23   1.402989 S    
C29   H21   1.100396 S    
C12   N6    1.474971 S    
N3    O11   1.300737 A    
O5    C3    1.308826 A    
C6    C11   1.515349 S    
C27   H14   1.112899 S    
O1    C1    1.315981 A    
C23   H1    1.104994 S    
C29   H20   1.089913 S    
C10   O10   1.382316 S    
C2    C15   1.510386 S    
C19   O25   1.379955 S    
C25   H8    1.110492 S    
C5    C6    1.399079 A    
C22   O28   1.362022 S    
C21   O27   1.364798 S    
C5    C7    1.411835 A    
C24   H4    1.114355 S    
C13   C16   1.407383 A    
O2    Cu1   2.022706 S    
C5    C12   1.514990 S    
C9    C10   1.433911 A    
C27   H15   1.107723 S    
C13   C14   1.431015 A    
C21   N1    1.371700 A    
N8    O23   1.299225 A    
C30   H23   1.090193 S    
C25   H9    1.103787 S    
N4    O14   1.303394 A    
C26   H12   1.098885 S    
C11   C12   1.517436 S    
C24   H5    1.112086 S    
O2    C2    1.317572 A    
C11   N3    1.477777 S    
N3    O12   1.302027 A    
N6    O18   1.295602 A    
C27   H13   1.107020 S    
C20   N2    1.360991 A    
N5    O15   1.298253 A    
C29   H19   1.108371 S    
O4    C2    1.320876 A    
O8    Cu2   2.011914 S    
C28   H17   1.107191 S    
O26   C28   1.408266 S    
C25   H7    1.109137 S    
C19   N2    1.373859 A    
N7    O21   1.301737 A    
N7    O22   1.302359 A    
O7    Cu2   2.016606 S    
Cu1   N1    2.045694 S    
O20   C26   1.403661 S    
O27   C29   1.398522 S    
O6    C4    1.311730 A    
C14   C15   1.422833 A    
C30   H24   1.108060 S    
O7    C3    1.319920 A    
O3    Cu2   2.022850 S    
O8    C4    1.313709 A    
N4    O13   1.299850 A    
C24   H6    1.107464 S    
O1    Cu1   2.028522 S    
C11   N5    1.470628 S    
C13   O19   1.388633 S    
N6    O17   1.303119 A    
C3    C7    1.492472 S    
C14   O20   1.384850 S    
C23   H3    1.099796 S    
C18   N8    1.425633 S    
C26   H10   1.106842 S    
O3    C1    1.317121 A    
Cu2   N2    2.045597 S    
C28   H18   1.105546 S    
C15   C17   1.415010 A    
C16   C18   1.405807 A    
C22   N1    1.375299 A    
C23   H2    1.110804 S    
C19   C21   1.429994 A    
C9    O9    1.383490 S    
C20   C22   1.446660 A    
O19   C25   1.401921 S    
C7    C9    1.418592 A    
C8    C10   1.411125 A    
O4    Cu2   2.028640 S    
C17   N7    1.423810 S    
C28   H16   1.107911 S    
C20   O26   1.387409 S    
O5    Cu1   2.011803 S    
O28   C30   1.391629 S    
C6    C8    1.390321 A    
C4    C8    1.482805 S    
C17   C18   1.396159 A    
N8    O24   1.303485 A    
N5    O16   1.300994 A    
C30   H22   1.107836 S    
Cu1   Cu2   2.722173 S    
