data_str_m2_o4_o10_f0_pcu.sym.44
_audit_creation_date              2013-03-05T16:30:35-0500
_audit_creation_method            fapswitch 2.2
_symmetry_space_group_name_H-M    P1
_symmetry_Int_Tables_number       1
_space_group_crystal_system       triclinic
_cell_length_a                    8.726072
_cell_length_b                    10.880927
_cell_length_c                    9.575823
_cell_angle_alpha                 90.599403
_cell_angle_beta                  97.409902
_cell_angle_gamma                 90.528114
_cell_volume                      901.509492606

loop_
_atom_site_label
_atom_site_type_symbol
_atom_site_description
_atom_site_fract_x
_atom_site_fract_y
_atom_site_fract_z
_atom_type_partial_charge
O1    O     O_R   0.500000 0.319640 0.618810 -0.568950
O2    O     O_R   0.500020 0.319680 0.381230 -0.588796
C1    C     C_R   0.497518 0.262929 0.498987 0.824617
O3    O     O_R   0.274830 0.499980 0.591380 -0.589070
O4    O     O_R   0.274850 0.500020 0.353800 -0.600690
C2    C     C_R   0.204249 0.496887 0.464445 0.883338
Cu1   Cu    Cu3+1 0.499990 0.499980 0.640670 1.023273
Cu2   Cu    Cu3+1 0.500010 0.500020 0.359330 0.986249
O5    O     O_R   0.499980 0.680320 0.618770 -0.552376
O6    O     O_R   0.500000 0.680360 0.381190 -0.585394
O7    O     O_R   0.725150 0.499980 0.646200 -0.581216
O8    O     O_R   0.725170 0.500020 0.408620 -0.586774
C3    C     C_R   0.501247 0.737388 0.500557 0.833163
C4    C     C_R   0.795931 0.499886 0.535925 0.906564
C5    C     C_2   0.039050 0.487611 0.446210 -0.346155
H1    H     H_    0.981062 0.464751 0.342417 0.163286
C6    C     C_2   0.961634 0.503442 0.556025 -0.297611
H2    H     H_    0.020033 0.521847 0.661527 0.170613
C7    C     C_R   0.511159 0.064850 0.620611 -0.037864
C8    C     C_R   0.492972 0.130521 0.496623 -0.053628
C9    C     C_R   0.473554 0.063033 0.368914 -0.149443
H3    H     H_    0.457357 0.109222 0.268521 0.185330
C10   C     C_R   0.475601 0.933969 0.370218 -0.144548
H4    H     H_    0.459478 0.884757 0.270410 0.204590
C11   C     C_R   0.499315 0.870334 0.499191 -0.068835
C12   C     C_R   0.518619 0.940772 0.622293 -0.002202
C13   C     C_3   0.556355 0.938779 0.779938 0.457777
C14   C     C_3   0.543491 0.080865 0.776813 0.054066
H5    H     H_    0.443796 0.119381 0.823739 0.133710
C15   C     C_R   0.635525 0.498883 0.089323 0.270630
N1    N     N_R   0.500980 0.500930 0.148050 -0.195740
C16   C     C_R   0.365683 0.492910 0.058098 -0.023029
H6    H     H_    0.256160 0.488439 0.098920 0.145990
C17   C     C_R   0.365682 0.493285 0.910012 0.002188
H7    H     H_    0.256287 0.489372 0.843206 0.139684
N2    N     N_R   0.500990 0.500890 0.852140 -0.194000
C18   C     C_R   0.635397 0.496048 0.941951 0.302454
C19   C     C_3   0.762720 0.587961 0.948645 -0.405076
C20   C     C_3   0.758726 0.596236 0.105837 -0.453317
H8    H     H_    0.870950 0.547236 0.919867 0.192840
H9    H     H_    0.725497 0.672211 0.891719 0.276526
H10   H     H_    0.868277 0.565758 0.165271 0.189233
H11   H     H_    0.716403 0.685981 0.141273 0.255061
N3    N     N_R   0.435940 0.877916 0.849151 0.096750
O9    O     O_R   0.472321 0.800130 0.949983 -0.358583
O10   O     O_R   0.290695 0.901284 0.810401 -0.331612
N4    N     N_R   0.713024 0.895814 0.828978 0.136265
O11   O     O_R   0.800738 0.851784 0.740627 -0.348747
O12   O     O_R   0.769894 0.910440 0.960648 -0.291017
N5    N     N_R   0.689231 0.146651 0.821755 0.175957
O13   O     O_R   0.800354 0.148754 0.743084 -0.302351
O14   O     O_R   0.708602 0.203111 0.943198 -0.353129

loop_
_geom_bond_atom_site_label_1
_geom_bond_atom_site_label_2
_geom_bond_distance
_ccdc_geom_bond_type
O4    Cu2   1.958637 S    
N5    O14   1.300307 A    
C10   H4    1.083143 S    
C5    C6    1.331687 D    
C18   C19   1.482738 S    
Cu1   N2    2.023813 S    
N1    C16   1.370264 A    
Cu2   O8    1.960579 S    
C16   H6    1.079097 S    
C10   C11   1.414972 A    
C6    H2    1.086983 S    
C11   C12   1.390282 A    
C1    C8    1.440766 S    
N4    O12   1.301651 A    
C9    H3    1.083110 S    
C8    C9    1.410305 A    
Cu1   O7    1.958638 S    
C7    C14   1.494007 S    
C4    C6    1.433982 S    
C3    C11   1.446999 S    
C12   C13   1.503437 S    
O4    C2    1.293069 A    
O3    Cu1   1.960580 S    
O3    C2    1.289795 A    
N2    C18   1.363771 A    
C19   H8    1.111989 S    
O8    C4    1.293545 A    
C15   C20   1.494826 S    
O2    C1    1.293826 A    
C20   H10   1.103259 S    
C17   N2    1.369657 A    
C9    C10   1.404773 A    
C15   N1    1.365895 A    
O7    C4    1.290261 A    
C5    H1    1.080994 S    
N4    O11   1.302471 A    
Cu1   Cu2   2.694089 S    
C19   C20   1.511895 S    
N3    O9    1.300929 A    
C19   H9    1.101501 S    
Cu2   O6    1.971222 S    
C17   H7    1.078641 S    
C13   N4    1.469297 S    
C13   C14   1.551450 S    
Cu1   O5    1.975622 S    
C7    C12   1.352411 A    
O5    C3    1.298039 A    
C14   H5    1.112641 S    
C20   H11   1.112265 S    
N5    O13   1.302567 A    
C2    C5    1.432037 S    
O1    Cu1   1.971222 S    
Cu2   N1    2.024415 S    
C14   N5    1.466461 S    
C13   N3    1.468984 S    
O2    Cu2   1.975621 S    
C7    C8    1.384442 A    
C15   C18   1.411082 A    
N3    O10   1.302033 A    
O1    C1    1.294717 A    
O6    C3    1.293649 A    
C16   C17   1.418094 A    
