data_str_m2_o4_o16_f0_pcu.sym.121
_audit_creation_date              2012-12-10T19:00:11-0500
_audit_creation_method            fapswitch 2.2
_symmetry_space_group_name_H-M    P1
_symmetry_Int_Tables_number       1
_space_group_crystal_system       triclinic
_cell_length_a                    9.550445
_cell_length_b                    10.887655
_cell_length_c                    13.515752
_cell_angle_alpha                 90.46971
_cell_angle_beta                  73.170801
_cell_angle_gamma                 90.870749
_cell_volume                      1345.03820138

loop_
_atom_site_label
_atom_site_type_symbol
_atom_type_description
_atom_site_fract_x
_atom_site_fract_y
_atom_site_fract_z
_atom_type_partial_charge
C1    C     C_R   0.501104 0.737195 0.499979 0.809191
C2    C     C_R   0.439472 0.521018 0.978072 0.110596
C3    C     C_R   0.476691 0.545624 0.870845 -0.003192
C4    C     C_R   0.546036 0.541407 0.031319 -0.004589
C5    C     C_R   0.692060 0.570564 0.975576 0.086239
C6    C     C_R   0.723444 0.606036 0.872727 -0.199288
C7    C     C_R   0.614428 0.600784 0.823298 -0.169082
C8    C     C_R   0.510725 0.538398 0.139022 0.501300
C9    C     C_R   0.767430 0.541146 0.130244 -0.294374
C10   C     C_R   0.375065 0.515358 0.814812 -0.188961
C11   C     C_R   0.380169 0.934870 0.501367 0.041040
C12   C     C_R   0.422037 0.507969 0.699992 0.808755
C13   C     C_R   0.503185 0.869616 0.501489 -0.072483
C14   C     C_R   0.628945 0.937631 0.503794 -0.200034
C15   C     C_R   0.626762 0.066608 0.504215 -0.231508
C16   C     C_R   0.498628 0.129689 0.503430 -0.115373
C17   C     C_R   0.376089 0.058663 0.504099 0.099627
C18   C     C_3   0.223007 0.059661 0.496092 0.306281
C19   C     C_3   0.229786 0.918296 0.493173 -0.495217
C20   C     C_R   0.940676 0.402619 0.459902 0.137159
C21   C     C_R   0.908518 0.590738 0.547626 0.630688
C22   C     C_R   0.056298 0.589410 0.549065 -0.132896
C23   C     C_R   0.498913 0.262559 0.500815 0.799414
C24   C     C_R   0.088533 0.403166 0.458915 0.238329
C25   C     C_3   0.135326 0.359837 0.349352 -0.475250
C26   C     C_3   0.975802 0.356356 0.351729 -0.487157
C27   C     C_R   0.577692 0.507183 0.300586 0.827754
C28   C     C_R   0.802137 0.570416 0.025429 -0.205310
C29   C     C_R   0.620460 0.526294 0.188205 -0.146549
C30   C     C_R   0.230238 0.479176 0.869508 0.452886
C31   C     C_R   0.195094 0.457186 0.975836 -0.297260
C32   C     C_R   0.300050 0.470555 0.027565 -0.179060
Cu1   Cu    Cu3+1 0.359330 0.500020 0.500010 0.997431
Cu2   Cu    Cu3+1 0.640670 0.499980 0.499990 0.980041
H1    H     H_    0.854195 0.537412 0.166852 0.179793
H2    H     H_    0.725652 0.116459 0.503883 0.155352
H3    H     H_    0.215916 0.102224 0.423489 0.051323
H4    H     H_    0.157439 0.872311 0.562513 0.217000
H5    H     H_    0.228362 0.877997 0.417652 0.181429
H6    H     H_    0.097400 0.662192 0.588177 0.160568
H7    H     H_    0.198844 0.430330 0.296170 0.273162
H8    H     H_    0.185852 0.268146 0.339533 0.174812
H9    H     H_    0.950161 0.423151 0.297965 0.219357
H10   H     H_    0.831257 0.640765 0.831180 0.176174
H11   H     H_    0.932398 0.261689 0.347798 0.188578
H12   H     H_    0.914585 0.591689 0.983215 0.185952
H13   H     H_    0.269400 0.439197 0.106451 0.198960
H14   H     H_    0.086331 0.427403 0.019333 0.140667
H15   H     H_    0.639204 0.641847 0.748158 0.233247
H16   H     H_    0.728837 0.892111 0.504106 0.206786
N1    N     N_R   0.852320 0.499070 0.499340 -0.224321
N2    N     N_R   0.148230 0.499110 0.499340 -0.209397
O1    O     O_R   0.381190 0.680360 0.500000 -0.587809
O2    O     O_R   0.618780 0.680320 0.499990 -0.531687
O3    O     O_R   0.323230 0.500000 0.650990 -0.524523
O4    O     O_R   0.560820 0.499960 0.650980 -0.580128
O5    O     O_R   0.381220 0.319680 0.500010 -0.575021
O6    O     O_R   0.618810 0.319640 0.500000 -0.589994
O7    O     O_R   0.439180 0.500040 0.349020 -0.521263
O8    O     O_R   0.676770 0.500000 0.349010 -0.601228
O9    O     O_3   0.123237 0.104232 0.587515 -0.557660
C33   C     C_3   0.977874 0.091951 0.581486 0.054996
H17   H     H_    0.967711 0.048564 0.508654 0.126301
H18   H     H_    0.930280 0.184798 0.585904 0.149735
C34   C     C_3   0.886370 0.016507 0.672522 -0.768073
H19   H     H_    0.902164 0.051118 0.746041 0.246090
H20   H     H_    0.768738 0.022547 0.677091 0.214736
H21   H     H_    0.918324 0.918634 0.662727 0.261931
F1    F     F_    0.825099 0.687062 0.591361 -0.713169
F2    F     F_    0.373409 0.568314 0.195628 -0.698917
O10   O     O_3   0.122526 0.475878 0.819029 -0.579072
C35   C     C_3   0.044123 0.363242 0.835074 0.059160
H22   H     H_    0.958519 0.363982 0.910877 0.144445
H23   H     H_    0.117330 0.283301 0.830990 0.150694
C36   C     C_3   0.968117 0.347471 0.751348 -0.720709
H24   H     H_    0.903307 0.429859 0.747142 0.237436
H25   H     H_    0.051058 0.334130 0.675516 0.267936
H26   H     H_    0.893004 0.266835 0.768864 0.197202

loop_
_geom_bond_atom_site_label_1
_geom_bond_atom_site_label_2
_ccdc_geom_bond_type
C24   N2    A    
C23   O6    A    
Cu2   O4    S    
C27   C29   S    
C4    C8    A    
C30   O10   S    
Cu1   N2    S    
C11   C19   S    
Cu2   N1    S    
C8    C29   A    
C19   H5    S    
C18   H3    S    
C20   N1    A    
C3    C7    A    
C27   O8    A    
C5    C6    A    
C15   C16   A    
C2    C32   A    
C18   C19   S    
C1    O1    A    
C33   H18   S    
C26   H11   S    
C20   C24   A    
C16   C17   A    
C34   H20   S    
C9    C29   A    
Cu1   O7    S    
C6    H10   S    
C21   C22   A    
Cu2   O8    S    
C35   C36   S    
C26   H9    S    
Cu1   Cu2   S    
Cu1   O1    S    
C24   C25   S    
C7    H15   S    
C35   H23   S    
C25   H7    S    
C35   H22   S    
C25   C26   S    
C21   F1    S    
C2    C4    A    
C36   H24   S    
C33   H17   S    
C19   H4    S    
C5    C28   A    
C10   C30   A    
C31   C32   A    
C30   C31   A    
C34   H21   S    
C22   H6    S    
C17   C18   S    
Cu1   O3    S    
Cu2   O6    S    
C36   H25   S    
C12   O4    A    
C10   C12   S    
C1    O2    A    
Cu2   O2    S    
C16   C23   S    
C31   H14   S    
C32   H13   S    
C1    C13   S    
C15   H2    S    
C21   N1    A    
C22   N2    A    
C23   O5    A    
C11   C17   A    
Cu1   O5    S    
C33   C34   S    
C4    C5    A    
C25   H8    S    
C18   O9    S    
C6    C7    A    
C8    F2    S    
C28   H12   S    
C2    C3    A    
O10   C35   S    
C3    C10   A    
C27   O7    A    
C11   C13   A    
C14   H16   S    
C20   C26   S    
O9    C33   S    
C36   H26   S    
C12   O3    A    
C34   H19   S    
C9    H1    S    
C14   C15   A    
C13   C14   A    
C9    C28   A    
