data_str_m2_o5_o7_f0_pcu.sym.25
_audit_creation_date              2012-10-26T20:15:00-0400
_audit_creation_method            fapswitch 2.2
_symmetry_space_group_name_H-M    P1
_symmetry_Int_Tables_number       1
_space_group_crystal_system       triclinic
_cell_length_a                    17.746692
_cell_length_b                    9.085299
_cell_length_c                    7.78028
_cell_angle_alpha                 89.911724
_cell_angle_beta                  90.216225
_cell_angle_gamma                 89.976752
_cell_volume                      1254.43516156

loop_
_atom_site_label
_atom_site_type_symbol
_atom_type_description
_atom_site_fract_x
_atom_site_fract_y
_atom_site_fract_z
_atom_type_partial_charge
C1    C     C_R   0.499970 0.220004 0.500081 0.534815
C2    C     C_R   0.845082 0.594660 0.382950 0.090001
C3    C     C_R   0.769008 0.403604 0.609954 0.131594
C4    C     C_R   0.233266 0.407912 0.382663 0.132712
C5    C     C_R   0.232806 0.592940 0.611478 0.132213
C6    C     C_R   0.765985 0.595009 0.387474 0.141803
C7    C     C_R   0.727611 0.499585 0.501089 -0.015678
C8    C     C_R   0.272604 0.500008 0.498299 0.005024
C9    C     C_R   0.885685 0.500224 0.492765 -0.011950
C10   C     C_R   0.114715 0.502023 0.493029 -0.001461
C11   C     C_1   0.966444 0.501710 0.490944 -0.041872
C12   C     C_R   0.499995 0.779994 0.499919 0.539135
C13   C     C_1   0.033944 0.502235 0.491216 -0.037441
C14   C     C_3   0.713069 0.162706 0.640271 -0.281910
C15   C     C_3   0.293580 0.171593 0.350744 -0.285833
C16   C     C_3   0.293614 0.828280 0.647822 -0.285073
C17   C     C_3   0.705036 0.831140 0.359441 -0.284196
C18   C     C_1   0.499965 0.065375 0.500111 -0.075205
C19   C     C_1   0.499974 0.934621 0.499889 -0.076026
C20   C     C_R   0.355371 0.499923 0.499634 0.572279
C21   C     C_R   0.644713 0.497998 0.500498 0.554913
C22   C     C_R   0.847840 0.404806 0.605672 0.116688
C23   C     C_R   0.154185 0.410054 0.379161 0.087888
C24   C     C_R   0.153694 0.592807 0.609733 0.087849
Cu1   Cu    Cu3+1 0.500000 0.500000 0.669080 1.014718
Cu2   Cu    Cu3+1 0.500000 0.500000 0.330920 1.034508
H1    H     H_    0.923824 0.370849 0.796796 0.229638
H2    H     H_    0.688821 0.087013 0.737621 0.144579
H3    H     H_    0.764095 0.110167 0.585349 0.160481
H4    H     H_    0.670742 0.180684 0.536793 0.128646
H5    H     H_    0.249893 0.298028 0.151978 0.281034
H6    H     H_    0.329300 0.107401 0.261088 0.146881
H7    H     H_    0.241965 0.107052 0.379665 0.143598
H8    H     H_    0.326019 0.189405 0.471320 0.142158
H9    H     H_    0.248183 0.701664 0.843500 0.280803
H10   H     H_    0.242394 0.893697 0.616814 0.143652
H11   H     H_    0.326699 0.810538 0.528710 0.141762
H12   H     H_    0.922589 0.238985 0.642655 0.225674
H13   H     H_    0.329004 0.891556 0.739582 0.147242
H14   H     H_    0.747383 0.707121 0.158422 0.280249
H15   H     H_    0.756801 0.895896 0.386593 0.143413
H16   H     H_    0.674010 0.811860 0.481175 0.143707
H17   H     H_    0.668152 0.895676 0.271746 0.147760
H18   H     H_    0.080614 0.381025 0.182321 0.234204
H19   H     H_    0.079988 0.245266 0.332307 0.235083
H20   H     H_    0.079973 0.759093 0.652336 0.235113
H21   H     H_    0.078629 0.623167 0.802063 0.233338
H22   H     H_    0.918148 0.762155 0.340966 0.234840
H23   H     H_    0.917375 0.630663 0.186389 0.235506
H24   H     H_    0.691312 0.343047 0.798413 0.275888
N1    N     N_1   0.500000 0.500000 0.076820 -0.075002
N2    N     N_2   0.724642 0.692952 0.279119 -0.474390
N3    N     N_1   0.500000 0.500000 0.923180 -0.078520
N4    N     N_3   0.888786 0.307572 0.717792 -0.587704
N5    N     N_3   0.114678 0.315710 0.261563 -0.638799
N6    N     N_3   0.113692 0.687840 0.725062 -0.638968
N7    N     N_3   0.883417 0.693043 0.268215 -0.636696
N8    N     N_2   0.732810 0.300797 0.720756 -0.473981
N9    N     N_2   0.273557 0.310785 0.272311 -0.476595
N10   N     N_2   0.272672 0.689034 0.724421 -0.476739
O1    O     O_R   0.500000 0.288390 0.642760 -0.502649
O2    O     O_R   0.500000 0.711610 0.357240 -0.495243
O3    O     O_R   0.500000 0.711610 0.642760 -0.492899
O4    O     O_R   0.500000 0.288390 0.357240 -0.496233
O5    O     O_R   0.391250 0.500000 0.642840 -0.477870
O6    O     O_R   0.608750 0.500000 0.357160 -0.471356
O7    O     O_R   0.608750 0.500000 0.642840 -0.521396
O8    O     O_R   0.391250 0.500000 0.357160 -0.479704

loop_
_geom_bond_atom_site_label_1
_geom_bond_atom_site_label_2
_ccdc_geom_bond_type
C5    C8    A    
N1    N3    T    
C17   H17   S    
C23   N5    S    
C6    C7    A    
C21   O6    A    
C24   N6    S    
C11   C13   T    
C15   H8    S    
H12   N4    S    
C16   H11   S    
C4    C8    A    
C6    N2    S    
Cu2   O2    S    
C2    N7    S    
Cu2   O8    S    
H22   N7    S    
C22   N4    S    
Cu1   O1    S    
Cu2   N1    S    
C21   O7    A    
C9    C11   S    
H18   N5    S    
C1    C18   S    
C8    C20   S    
C5    C24   A    
Cu2   O6    S    
C14   H4    S    
C14   N8    S    
C17   N2    S    
H14   N2    S    
C12   C19   S    
C4    C23   A    
C3    C7    A    
C4    N9    S    
C16   N10   S    
C10   C23   A    
C17   H15   S    
C9    C22   A    
H1    N4    S    
C12   O2    A    
C16   H13   S    
H5    N9    S    
H24   N8    S    
C3    N8    S    
C20   O5    A    
C15   H6    S    
H23   N7    S    
H19   N5    S    
C10   C24   A    
C18   C19   T    
Cu1   O3    S    
H20   N6    S    
C12   O3    A    
Cu1   O5    S    
Cu2   O4    S    
C17   H16   S    
H9    N10   S    
C3    C22   A    
C14   H3    S    
C5    N10   S    
C14   H2    S    
Cu1   Cu2   S    
C7    C21   S    
C2    C9    A    
C15   N9    S    
C1    O4    A    
C20   O8    A    
C16   H10   S    
Cu1   N3    S    
C2    C6    A    
C1    O1    A    
H21   N6    S    
C15   H7    S    
C10   C13   S    
Cu1   O7    S    
