data_str_m2_o1_o4_f0_pcu.sym.155
_audit_creation_date              2012-12-10T18:03:59-0500
_audit_creation_method            fapswitch 2.2
_symmetry_space_group_name_H-M    P1
_symmetry_Int_Tables_number       1
_space_group_crystal_system       triclinic
_cell_length_a                    10.837237
_cell_length_b                    9.529212
_cell_length_c                    10.872269
_cell_angle_alpha                 90.116536
_cell_angle_beta                  89.87439
_cell_angle_gamma                 90.273752
_cell_volume                      1122.76498297

loop_
_atom_site_label
_atom_site_type_symbol
_atom_type_description
_atom_site_fract_x
_atom_site_fract_y
_atom_site_fract_z
_atom_type_partial_charge
C1    C     C_R   0.262254 0.499903 0.501614 0.823521
C2    C     C_R   0.737808 0.500287 0.501811 0.827176
C3    C     C_R   0.399101 0.073641 0.461073 -0.016262
C4    C     C_R   0.600568 0.074908 0.539508 -0.035909
C5    C     C_R   0.398620 0.925193 0.462454 -0.060427
C6    C     C_R   0.600690 0.926506 0.538868 -0.052799
C7    C     C_R   0.500202 0.499850 0.262713 0.789967
C8    C     C_R   0.501306 0.500370 0.737421 0.807695
C9    C     C_R   0.473702 0.618418 0.062996 0.000867
C10   C     C_R   0.480434 0.620921 0.938547 -0.005367
C11   C     C_R   0.501639 0.498951 0.130204 -0.108110
C12   C     C_R   0.505574 0.500695 0.870101 -0.106159
C13   C     C_R   0.532526 0.376339 0.064270 -0.204060
C14   C     C_R   0.533495 0.376897 0.935221 -0.203883
C15   C     C_3   0.436916 0.770791 0.929757 0.208060
C16   C     C_3   0.427013 0.766789 0.074919 0.221984
C17   C     C_R   0.063531 0.391281 0.448850 -0.246688
C18   C     C_R   0.935869 0.391791 0.448430 -0.252383
C19   C     C_R   0.871735 0.501143 0.505533 -0.042418
C20   C     C_R   0.128471 0.500619 0.505645 -0.036455
C21   C     C_R   0.935922 0.609352 0.566614 0.117350
C22   C     C_R   0.065202 0.609943 0.565670 0.109570
Cu1   Cu    Cu3+1 0.500000 0.640660 0.500000 0.937570
Cu2   Cu    Cu3+1 0.500000 0.359340 0.500000 0.937256
H1    H     H_    0.555333 0.280126 0.111804 0.169562
H2    H     H_    0.555831 0.280654 0.887029 0.162647
H3    H     H_    0.111659 0.306883 0.402479 0.152529
H4    H     H_    0.887109 0.307659 0.401817 0.160388
H5    H     H_    0.318278 0.128260 0.428810 0.118421
H6    H     H_    0.681227 0.130550 0.572113 0.124274
H7    H     H_    0.316905 0.869670 0.432719 0.130348
H8    H     H_    0.680995 0.872011 0.571254 0.157745
N1    N     N_R   0.500000 0.852070 0.500000 -0.162708
N2    N     N_R   0.500000 0.147940 0.500000 -0.152640
O1    O     O_R   0.319640 0.618740 0.499990 -0.564582
O2    O     O_R   0.680360 0.618740 0.500010 -0.563218
O3    O     O_R   0.319620 0.381170 0.499990 -0.601354
O4    O     O_R   0.680380 0.381170 0.500010 -0.604277
O5    O     O_R   0.499990 0.618810 0.319660 -0.587660
O6    O     O_R   0.500010 0.618810 0.680340 -0.587633
O7    O     O_R   0.499960 0.381240 0.319650 -0.582822
O8    O     O_R   0.500040 0.381240 0.680350 -0.580152
C23   C     C_3   0.531681 0.879331 0.876539 -0.314234
C24   C     C_3   0.667350 0.831290 0.873740 -0.360291
C25   C     C_3   0.755104 0.955855 0.858348 -0.879748
H9    H     H_    0.734618 0.013134 0.772159 0.245226
H10   H     H_    0.745990 0.028931 0.937558 0.259751
H11   H     H_    0.851821 0.918262 0.854574 0.242354
H12   H     H_    0.693317 0.774491 0.958400 0.216055
H13   H     H_    0.680313 0.757661 0.795712 0.241729
H14   H     H_    0.506314 0.906148 0.780586 0.195866
H15   H     H_    0.522852 0.979305 0.928605 0.212365
C26   C     C_3   0.293364 0.783714 0.129473 -0.351104
C27   C     C_3   0.218691 0.646969 0.147110 -0.360795
C28   C     C_3   0.087001 0.677619 0.189084 -0.855087
H16   H     H_    0.087784 0.735895 0.277719 0.254128
H17   H     H_    0.038020 0.740472 0.118631 0.251650
H18   H     H_    0.036164 0.577354 0.202647 0.251066
H19   H     H_    0.215062 0.584905 0.060855 0.215030
H20   H     H_    0.262800 0.581656 0.218761 0.216011
H21   H     H_    0.298166 0.834675 0.220976 0.177782
H22   H     H_    0.240291 0.858432 0.072175 0.215148
N3    N     N_3   0.316960 0.781098 0.867166 -0.618016
H23   H     H_    0.262827 0.692531 0.885124 0.208206
H24   H     H_    0.331266 0.779964 0.772137 0.256063
N4    N     N_3   0.516837 0.860465 0.136457 -0.604655
H25   H     H_    0.605256 0.817513 0.134703 0.217726
H26   H     H_    0.496266 0.869748 0.229836 0.239591
N5    N     N_3   0.869653 0.714261 0.634048 -0.614563
H27   H     H_    0.893678 0.706566 0.726778 0.210302
H28   H     H_    0.895582 0.813309 0.601687 0.209320
N6    N     N_3   0.132458 0.718860 0.628021 -0.599821
H29   H     H_    0.110519 0.815315 0.588274 0.211506
H30   H     H_    0.105833 0.720340 0.720390 0.212476

loop_
_geom_bond_atom_site_label_1
_geom_bond_atom_site_label_2
_ccdc_geom_bond_type
C24   H12   S    
Cu1   N1    S    
Cu2   O4    S    
Cu1   Cu2   S    
N3    H24   S    
C3    H5    S    
C22   N6    S    
Cu2   O8    S    
C26   H22   S    
C2    O4    A    
N4    H26   S    
C27   H19   S    
C6    N1    A    
C1    O3    A    
C8    C12   S    
C13   H1    S    
C28   H16   S    
C28   H17   S    
N4    H25   S    
C12   C14   A    
C15   C23   S    
C27   H20   S    
C26   C27   S    
C14   H2    S    
C7    C11   S    
Cu2   O7    S    
C11   C13   A    
C23   H14   S    
C10   C12   A    
Cu1   O5    S    
C9    C11   A    
C21   C22   A    
C19   C21   A    
C9    C16   S    
C8    O8    A    
Cu2   O3    S    
Cu1   O1    S    
C10   C15   S    
C25   H10   S    
C23   C24   S    
C17   C18   A    
N5    H27   S    
C6    H8    S    
C4    N2    A    
C23   H15   S    
C28   H18   S    
C4    C6    A    
C16   N4    S    
C20   C22   A    
C24   H13   S    
C15   C16   S    
C17   H3    S    
C5    N1    A    
C25   H9    S    
C17   C20   A    
C18   H4    S    
C24   C25   S    
C1    O1    A    
N6    H29   S    
N6    H30   S    
Cu1   O2    S    
C9    C10   A    
C25   H11   S    
C2    O2    A    
N5    H28   S    
C7    O5    A    
C27   C28   S    
C18   C19   A    
C1    C20   S    
C15   N3    S    
C8    O6    A    
C3    N2    A    
C5    H7    S    
C2    C19   S    
C13   C14   A    
C26   H21   S    
C16   C26   S    
C4    H6    S    
Cu1   O6    S    
C7    O7    A    
C21   N5    S    
N3    H23   S    
C3    C5    A    
Cu2   N2    S    
