data_str_m2_o4_o24_f0_pcu.sym.186
_audit_creation_date              2013-03-05T16:32:26-0500
_audit_creation_method            fapswitch 2.2
_symmetry_space_group_name_H-M    P1
_symmetry_Int_Tables_number       1
_space_group_crystal_system       triclinic
_cell_length_a                    10.639438
_cell_length_b                    10.871945
_cell_length_c                    9.618571
_cell_angle_alpha                 90.269913
_cell_angle_beta                  90.481997
_cell_angle_gamma                 90.709889
_cell_volume                      1112.45576665

loop_
_atom_site_label
_atom_site_type_symbol
_atom_site_description
_atom_site_fract_x
_atom_site_fract_y
_atom_site_fract_z
_atom_type_partial_charge
O1    O     O_R   0.500000 0.319640 0.618810 -0.609606
O2    O     O_R   0.500010 0.319680 0.381230 -0.555242
C1    C     C_R   0.497803 0.262477 0.499286 0.830022
O3    O     O_R   0.316850 0.499950 0.618770 -0.588099
O4    O     O_R   0.316860 0.499990 0.381190 -0.504342
C2    C     C_R   0.259462 0.500278 0.499732 0.846799
Cu1   Cu    Cu3+1 0.499990 0.499980 0.640670 0.991191
Cu2   Cu    Cu3+1 0.500010 0.500020 0.359330 1.064509
O5    O     O_R   0.499990 0.680320 0.618770 -0.580387
O6    O     O_R   0.500000 0.680360 0.381190 -0.511649
O7    O     O_R   0.683140 0.500010 0.618810 -0.532911
O8    O     O_R   0.683150 0.500050 0.381230 -0.599401
C3    C     C_R   0.493354 0.737200 0.499826 0.891885
C4    C     C_R   0.740224 0.497769 0.500410 0.815088
C5    C     C_3   0.040599 0.389863 0.448799 -0.195397
C6    C     C_3   0.956368 0.481616 0.369122 -0.169259
H1    H     H_    0.920713 0.469402 0.261167 0.173340
H2    H     H_    0.077019 0.302072 0.406798 0.196458
C7    C     C_3   0.876770 0.495991 0.500836 -0.067654
C8    C     C_3   0.958131 0.403514 0.580093 -0.132005
C9    C     C_3   0.041973 0.512268 0.631813 -0.121126
C10   C     C_3   0.957820 0.604731 0.553064 -0.234411
C11   C     C_3   0.038537 0.588286 0.423362 0.448169
C12   C     C_3   0.122354 0.498636 0.500258 -0.029968
H3    H     H_    0.921347 0.327189 0.645019 0.165398
H4    H     H_    0.078756 0.524502 0.739421 0.222585
H5    H     H_    0.921868 0.693237 0.593685 0.183100
C13   C     C_R   0.499508 0.064090 0.620503 0.001238
C14   C     C_R   0.484948 0.129011 0.497351 -0.220844
C15   C     C_R   0.447146 0.063590 0.375993 0.308629
C16   C     C_R   0.436503 0.934324 0.377749 0.286611
C17   C     C_R   0.475053 0.869981 0.499113 -0.280564
C18   C     C_R   0.496530 0.937608 0.620977 0.009538
C19   C     C_3   0.598609 0.932581 0.729357 0.261074
C20   C     C_3   0.601069 0.072696 0.728429 -0.446284
H6    H     H_    0.565919 0.893268 0.829292 0.155590
H7    H     H_    0.566837 0.113782 0.826943 0.197361
H8    H     H_    0.689439 0.114534 0.688179 0.192684
C21   C     C_R   0.608795 0.518912 0.074344 0.017140
N1    N     N_R   0.500800 0.500930 0.147930 -0.262334
C22   C     C_R   0.396103 0.464212 0.071600 0.406655
C23   C     C_R   0.398474 0.458667 0.924546 0.386076
N2    N     N_R   0.500800 0.500890 0.852020 -0.282267
C24   C     C_R   0.608829 0.518734 0.927810 0.132163
C25   C     C_3   0.698760 0.624434 0.920622 0.147710
C26   C     C_3   0.697781 0.626938 0.079686 0.158977
H9    H     H_    0.659237 0.705574 0.867317 0.159957
H10   H     H_    0.789482 0.605386 0.129224 0.164012
O9    O     O_3   0.710718 0.879884 0.681471 -0.731421
H11   H     H_    0.731630 0.916135 0.589769 0.331825
N3    N     N_R   0.282331 0.426314 0.137044 0.173803
O10   O     O_R   0.180240 0.488004 0.114233 -0.311280
O11   O     O_R   0.273178 0.316399 0.188610 -0.305106
O12   O     O_3   0.298035 0.402856 0.858506 -0.676349
H12   H     H_    0.333575 0.345067 0.790065 0.356156
O13   O     O_3   0.814822 0.587248 0.868546 -0.697865
H13   H     H_    0.869143 0.662073 0.869101 0.345258
O14   O     O_3   0.644142 0.733862 0.134918 -0.690583
H14   H     H_    0.563299 0.747515 0.085642 0.355008
O15   O     O_3   0.081526 0.685053 0.341072 -0.638855
H15   H     H_    0.004844 0.723965 0.303119 0.331448
O16   O     O_3   0.419591 0.124370 0.255135 -0.606460
H16   H     H_    0.502069 0.146466 0.214135 0.334979
N4    N     N_R   0.386876 0.870999 0.256838 0.164028
O17   O     O_R   0.302562 0.784685 0.271255 -0.281365
O18   O     O_R   0.409248 0.911963 0.132436 -0.343432

loop_
_geom_bond_atom_site_label_1
_geom_bond_atom_site_label_2
_geom_bond_distance
_ccdc_geom_bond_type
C5    H2    1.110182 S    
C11   C12   1.519713 S    
C14   C15   1.416817 A    
C26   O14   1.405348 S    
Cu1   N2    2.032809 S    
O4    Cu2   1.961679 S    
C22   C23   1.415902 A    
O12   H12   0.988559 S    
C3    C17   1.459084 S    
C21   C26   1.499792 S    
C7    C8    1.535904 S    
Cu2   O8    1.958093 S    
N2    C24   1.367171 A    
C2    C12   1.458696 S    
C17   C18   1.396406 A    
C8    C9    1.549854 S    
C25   H9    1.108023 S    
C18   C19   1.500732 S    
C22   N3    1.426231 S    
Cu1   Cu2   2.706092 S    
C5    C12   1.536825 S    
C9    C10   1.550476 S    
C23   O12   1.372035 S    
Cu1   O7    1.961678 S    
C11   O15   1.394453 S    
C1    C14   1.455798 S    
O16   H16   0.992354 S    
O3    Cu1   1.958093 S    
O4    C2    1.297973 A    
C16   N4    1.441678 S    
N4    O17   1.298846 A    
O3    C2    1.293101 A    
N1    C22   1.382630 A    
C20   H7    1.111710 S    
C9    H4    1.110289 S    
O8    C4    1.293202 A    
C13   C18   1.375111 A    
O2    C1    1.297497 A    
C6    C11   1.530649 S    
C19   H6    1.110598 S    
C10   H5    1.110383 S    
C15   O16   1.371237 S    
C6    C7    1.538226 S    
C15   C16   1.408720 A    
C19   C20   1.523298 S    
O7    C4    1.295441 A    
C26   H10   1.110285 S    
C6    H1    1.109325 S    
C23   N2    1.373327 A    
C21   C24   1.409434 A    
C5    C6    1.550262 S    
C25   C26   1.530209 S    
C7    C10   1.534751 S    
N3    O10   1.301238 A    
O13   H13   0.992006 S    
C13   C20   1.493893 S    
Cu2   O6    1.970905 S    
O9    H11   0.993606 S    
C8    H3    1.110263 S    
C9    C12   1.540806 S    
C21   N1    1.367052 A    
Cu1   O5    1.972915 S    
O5    C3    1.304869 A    
C20   H8    1.112628 S    
C13   C14   1.390258 A    
C19   O9    1.409540 S    
Cu2   N1    2.033525 S    
N3    O11   1.298854 A    
O14   H14   0.991692 S    
O1    Cu1   1.970905 S    
C4    C7    1.453109 S    
C5    C8    1.551385 S    
C10   C11   1.531534 S    
O2    Cu2   1.972917 S    
C24   C25   1.488448 S    
C16   C17   1.423735 A    
C25   O13   1.400004 S    
O15   H15   0.991384 S    
O1    C1    1.304194 A    
O6    C3    1.298005 A    
N4    O18   1.301521 A    
