data_str_m2_o4_o22_f0_pcu.sym.146
_audit_creation_date              2012-12-10T19:03:04-0500
_audit_creation_method            fapswitch 2.2
_symmetry_space_group_name_H-M    P1
_symmetry_Int_Tables_number       1
_space_group_crystal_system       triclinic
_cell_length_a                    10.805723
_cell_length_b                    10.830318
_cell_length_c                    9.577841
_cell_angle_alpha                 89.328474
_cell_angle_beta                  91.46598
_cell_angle_gamma                 89.887844
_cell_volume                      1120.44244827

loop_
_atom_site_label
_atom_site_type_symbol
_atom_type_description
_atom_site_fract_x
_atom_site_fract_y
_atom_site_fract_z
_atom_type_partial_charge
C1    C     C_R   0.502674 0.262314 0.501106 0.813182
C2    C     C_3   0.878071 0.486728 0.504099 -0.187058
C3    C     C_3   0.924948 0.617668 0.552889 -0.303027
C4    C     C_3   0.926537 0.457882 0.352546 0.214719
C5    C     C_R   0.508320 0.060740 0.628586 0.127418
C6    C     C_R   0.515883 0.128999 0.503606 -0.151859
C7    C     C_R   0.538874 0.066073 0.379065 -0.108551
C8    C     C_R   0.538088 0.937475 0.377319 -0.138583
C9    C     C_R   0.511021 0.870653 0.499007 -0.078058
C10   C     C_R   0.499234 0.933858 0.623411 0.031322
C11   C     C_3   0.397071 0.928538 0.725154 -0.467385
C12   C     C_R   0.260055 0.502057 0.498355 0.856554
C13   C     C_3   0.415078 0.066706 0.741866 0.284895
C14   C     C_R   0.598357 0.546357 0.075497 0.267966
C15   C     C_R   0.408495 0.441858 0.070260 0.057366
C16   C     C_R   0.407859 0.445809 0.921869 0.053357
C17   C     C_R   0.598385 0.545973 0.928506 0.320661
C18   C     C_3   0.647300 0.674158 0.921088 -0.501096
C19   C     C_3   0.647081 0.674949 0.079369 -0.451013
C20   C     C_R   0.502874 0.737437 0.499382 0.893724
C21   C     C_R   0.739423 0.487868 0.501925 0.880879
C22   C     C_3   0.081268 0.400168 0.602392 -0.471446
C23   C     C_3   0.938955 0.384998 0.603712 0.234433
C24   C     C_3   0.068321 0.629553 0.538254 0.252685
C25   C     C_3   0.069093 0.466230 0.350737 -0.357540
C26   C     C_3   0.122144 0.501324 0.496007 -0.146847
Cu1   Cu    Cu3+1 0.499990 0.499980 0.640670 1.020314
Cu2   Cu    Cu3+1 0.500010 0.500020 0.359330 1.028981
H1    H     H_    0.117424 0.425183 0.708157 0.243070
H2    H     H_    0.889580 0.529046 0.277941 0.172520
H3    H     H_    0.552327 0.115694 0.281829 0.216014
H4    H     H_    0.553022 0.891430 0.279889 0.172730
H5    H     H_    0.306765 0.905061 0.673920 0.210744
H6    H     H_    0.419730 0.871643 0.819345 0.238194
H7    H     H_    0.331940 0.123442 0.714132 0.081854
H8    H     H_    0.124193 0.309803 0.577006 0.181523
H9    H     H_    0.334997 0.400733 0.862121 0.175572
H10   H     H_    0.741490 0.678519 0.877718 0.226408
H11   H     H_    0.580271 0.740044 0.872296 0.237617
H12   H     H_    0.741769 0.679276 0.126648 0.251570
H13   H     H_    0.579300 0.741229 0.120668 0.226729
H14   H     H_    0.916112 0.293033 0.561022 0.190653
H15   H     H_    0.108306 0.651749 0.643323 0.118825
H16   H     H_    0.908013 0.622146 0.665849 0.171338
H17   H     H_    0.097512 0.533037 0.269002 0.232813
H18   H     H_    0.111233 0.377261 0.321281 0.236594
N1    N     N_R   0.500800 0.500930 0.147930 -0.237249
N2    N     N_R   0.500800 0.500890 0.852020 -0.211150
O1    O     O_R   0.500000 0.319640 0.618810 -0.545901
O2    O     O_R   0.500010 0.319680 0.381230 -0.591597
O3    O     O_R   0.317690 0.499960 0.618790 -0.615906
O4    O     O_R   0.317700 0.500000 0.381210 -0.597395
O5    O     O_R   0.499990 0.680320 0.618770 -0.606589
O6    O     O_R   0.500000 0.680360 0.381190 -0.555337
O7    O     O_R   0.682300 0.500000 0.618790 -0.551799
O8    O     O_R   0.682310 0.500040 0.381210 -0.542418
S1    S     S_3+6 0.113989 0.757935 0.425966 -0.010852
O9    O     O_2   0.250398 0.755742 0.402624 -0.322631
O10   O     O_2   0.047124 0.754334 0.286512 -0.245627
O11   O     O_3   0.079022 0.890858 0.505244 -0.547765
H19   H     H_    0.113348 0.956717 0.445022 0.387406
C27   C     C_2   0.850254 0.727756 0.497245 0.473998
H20   H     H_    0.837490 0.806994 0.563803 0.106551
O12   O     O_2   0.806381 0.730788 0.378692 -0.550301
S2    S     S_3+6 0.486374 0.100989 0.908352 0.021058
O13   O     O_2   0.550746 0.223204 0.901346 -0.240555
O14   O     O_2   0.388360 0.105011 0.016676 -0.293689
O15   O     O_3   0.591303 0.991611 0.953244 -0.530615
H21   H     H_    0.625710 0.017105 0.045287 0.380276
C28   C     C_2   0.309894 0.368046 0.135118 0.457827
H22   H     H_    0.323563 0.323818 0.235421 0.112066
O16   O     O_2   0.211171 0.351393 0.073197 -0.506238
S3    S     S_3+6 0.891457 0.370521 0.782921 0.043612
O17   O     O_2   0.759302 0.329067 0.788975 -0.219194
O18   O     O_2   0.971080 0.272710 0.852763 -0.182109
O19   O     O_3   0.911582 0.502793 0.870680 -0.561569
H23   H     H_    0.863241 0.493124 0.956345 0.385130
S4    S     S_3+6 0.879069 0.308077 0.283286 0.000549
O20   O     O_2   0.753444 0.270576 0.331280 -0.315909
O21   O     O_2   0.875729 0.315863 0.126873 -0.196264
O22   O     O_3   0.980291 0.196753 0.333630 -0.555983
H24   H     H_    0.949469 0.120774 0.287984 0.405405

loop_
_geom_bond_atom_site_label_1
_geom_bond_atom_site_label_2
_ccdc_geom_bond_type
Cu1   N2    S    
C8    C9    A    
Cu2   N1    S    
C22   H1    S    
C11   C13   S    
S3    O17   D    
C17   N2    A    
C15   N1    A    
C16   N2    A    
O22   H24   S    
Cu2   O8    S    
C7    C8    A    
C13   S2    S    
C23   H14   S    
C24   C26   S    
C13   H7    S    
C5    C6    A    
Cu1   O7    S    
S1    O10   D    
C15   C16   A    
C18   C19   S    
C27   O12   D    
Cu2   O2    S    
C24   S1    S    
S2    O14   D    
C28   H22   S    
C9    C10   A    
C5    C13   S    
C16   H9    S    
S3    O18   D    
C14   C17   A    
C3    C24   S    
C23   S3    S    
C12   O4    A    
Cu1   O3    S    
C4    C25   S    
C3    H16   S    
C7    H3    S    
C1    C6    S    
C8    H4    S    
C11   H5    S    
O19   H23   S    
C20   O6    A    
C10   C11   S    
C21   O7    A    
Cu2   O6    S    
S4    O20   D    
O15   H21   S    
S1    O11   S    
C25   C26   S    
C12   C26   S    
O11   H19   S    
C2    C4    S    
C18   H11   S    
C4    S4    S    
C27   H20   S    
C9    C20   S    
S2    O15   S    
C2    C21   S    
C17   C18   S    
C14   N1    A    
S3    O19   S    
C25   H17   S    
C2    C23   S    
C12   O3    A    
C1    O2    A    
C3    C27   S    
C15   C28   S    
C14   C19   S    
C11   H6    S    
C20   O5    A    
C21   O8    A    
Cu1   O5    S    
C6    C7    A    
C22   H8    S    
C2    C3    S    
C18   H10   S    
C5    C10   A    
Cu2   O4    S    
S4    O22   S    
S1    O9    D    
S4    O21   D    
C19   H12   S    
C19   H13   S    
S2    O13   D    
C22   C26   S    
Cu1   Cu2   S    
C24   H15   S    
C22   C23   S    
C28   O16   D    
C1    O1    A    
C25   H18   S    
C4    H2    S    
Cu1   O1    S    
