data_str_m2_o5_o14_f0_pcu.sym.26
_audit_creation_date              2012-10-26T21:17:40-0400
_audit_creation_method            fapswitch 2.2
_symmetry_space_group_name_H-M    P1
_symmetry_Int_Tables_number       1
_space_group_crystal_system       triclinic
_cell_length_a                    10.823178
_cell_length_b                    9.079889
_cell_length_c                    7.892634
_cell_angle_alpha                 89.988445
_cell_angle_beta                  88.903421
_cell_angle_gamma                 90.005937
_cell_volume                      775.492759985

loop_
_atom_site_label
_atom_site_type_symbol
_atom_type_description
_atom_site_fract_x
_atom_site_fract_y
_atom_site_fract_z
_atom_type_partial_charge
C1    C     C_R   0.499874 0.220461 0.500004 0.550610
C2    C     C_R   0.057413 0.505122 0.656017 0.026893
C3    C     C_R   0.127695 0.519715 0.506021 -0.000279
C4    C     C_R   0.872710 0.477985 0.496592 -0.006905
C5    C     C_R   0.065768 0.537625 0.355301 -0.175488
C6    C     C_R   0.937306 0.533947 0.356463 -0.182803
C7    C     C_1   0.499745 0.065495 0.500044 -0.063063
C8    C     C_1   0.499777 0.934506 0.500037 -0.064138
C9    C     C_3   0.147301 0.827238 0.740238 -0.302842
C10   C     C_3   0.822529 0.143275 0.687118 -0.298631
C11   C     C_R   0.499922 0.779541 0.499989 0.546227
C12   C     C_R   0.262131 0.509896 0.502021 0.557821
C13   C     C_R   0.737902 0.489256 0.498847 0.556591
C14   C     C_R   0.085681 0.577773 0.808361 0.158147
C15   C     C_R   0.883286 0.384523 0.791511 0.163408
C16   C     C_R   0.004336 0.560184 0.945958 -0.146489
C17   C     C_R   0.912951 0.450812 0.944300 -0.125459
C18   C     C_R   0.938870 0.443342 0.643534 0.016300
Cu1   Cu    Cu3+1 0.500000 0.500000 0.669080 1.034619
Cu2   Cu    Cu3+1 0.500000 0.500000 0.330920 0.996993
H1    H     H_    0.118552 0.564326 0.242705 0.141153
H2    H     H_    0.839762 0.173248 0.552389 0.146289
H3    H     H_    0.009154 0.638510 0.046916 0.101324
H4    H     H_    0.858620 0.423884 0.055880 0.124299
H5    H     H_    0.886849 0.580776 0.253869 0.133094
H6    H     H_    0.215516 0.700476 0.935275 0.251414
H7    H     H_    0.227579 0.903188 0.745791 0.150298
H8    H     H_    0.067888 0.877629 0.810280 0.128221
H9    H     H_    0.123162 0.812679 0.605165 0.149071
H10   H     H_    0.750003 0.246935 0.902072 0.251222
H11   H     H_    0.744591 0.063793 0.692283 0.145935
H12   H     H_    0.905865 0.089189 0.738695 0.129598
N1    N     N_1   0.500000 0.500000 0.076820 -0.091898
N2    N     N_1   0.500000 0.500000 0.923180 -0.083705
N3    N     N_2   0.179469 0.687635 0.816081 -0.478091
N4    N     N_2   0.790900 0.272276 0.786545 -0.477801
O1    O     O_R   0.500000 0.288390 0.642760 -0.489637
O2    O     O_R   0.500000 0.711610 0.642760 -0.493768
O3    O     O_R   0.500000 0.288370 0.357190 -0.498050
O4    O     O_R   0.500000 0.711630 0.357190 -0.498939
O5    O     O_R   0.319650 0.500000 0.642810 -0.470892
O6    O     O_R   0.680350 0.500000 0.642810 -0.471365
O7    O     O_R   0.319630 0.500000 0.357240 -0.516344
O8    O     O_R   0.680370 0.500000 0.357240 -0.522942

loop_
_geom_bond_atom_site_label_1
_geom_bond_atom_site_label_2
_ccdc_geom_bond_type
C11   O2    A    
C15   C17   A    
C12   O5    A    
Cu1   O2    S    
C9    H9    S    
C15   C18   A    
H6    N3    S    
Cu1   Cu2   S    
Cu1   O6    S    
H10   N4    S    
C4    C18   A    
C16   H3    S    
C2    C3    A    
C7    C8    T    
C10   H2    S    
C5    C6    A    
C8    C11   S    
Cu2   O4    S    
Cu2   N1    S    
C13   O6    A    
Cu2   O8    S    
N1    N2    T    
C12   O7    A    
C11   O4    A    
C2    C14   A    
C14   C16   A    
C17   H4    S    
C2    C18   A    
C1    O3    A    
C6    H5    S    
C10   H12   S    
C15   N4    S    
C14   N3    S    
Cu2   O7    S    
C5    H1    S    
C9    H7    S    
C4    C6    A    
C4    C13   S    
C9    N3    S    
Cu2   O3    S    
C16   C17   A    
C10   N4    S    
C3    C12   S    
Cu1   O1    S    
C1    C7    S    
C10   H11   S    
C13   O8    A    
Cu1   O5    S    
C9    H8    S    
C1    O1    A    
C3    C5    A    
Cu1   N2    S    
