data_str_m2_o1_o17_f0_pcu.sym.50
_audit_creation_date              2013-03-05T16:04:29-0500
_audit_creation_method            fapswitch 2.2
_symmetry_space_group_name_H-M    P1
_symmetry_Int_Tables_number       1
_space_group_crystal_system       triclinic
_cell_length_a                    10.820067
_cell_length_b                    9.693367
_cell_length_c                    15.077774
_cell_angle_alpha                 90.032691
_cell_angle_beta                  94.768318
_cell_angle_gamma                 89.983216
_cell_volume                      1575.92679969

loop_
_atom_site_label
_atom_site_type_symbol
_atom_site_description
_atom_site_fract_x
_atom_site_fract_y
_atom_site_fract_z
_atom_type_partial_charge
O1    O     O_R   0.319640 0.618740 0.499990 -0.590121
O2    O     O_R   0.680360 0.381260 0.500010 -0.590122
O3    O     O_R   0.680360 0.618740 0.500010 -0.590139
O4    O     O_R   0.319640 0.381260 0.499990 -0.590141
C1    C     C_R   0.262472 0.500023 0.498888 0.748066
C2    C     C_R   0.737528 0.499977 0.501112 0.748062
O5    O     O_R   0.499970 0.618800 0.370260 -0.579339
O6    O     O_R   0.500030 0.381200 0.629740 -0.579340
O7    O     O_R   0.500030 0.618800 0.629740 -0.576745
O8    O     O_R   0.499970 0.381200 0.370260 -0.576745
C3    C     C_R   0.499863 0.500032 0.329567 0.821751
C4    C     C_R   0.500137 0.499968 0.670433 0.821745
Cu1   Cu    Cu3+1 0.500000 0.640660 0.500000 0.929830
Cu2   Cu    Cu3+1 0.500000 0.359340 0.500000 0.929829
C5    C     C_R   0.608538 0.538094 0.819193 0.080902
C6    C     C_R   0.391465 0.461909 0.180807 0.080893
C7    C     C_R   0.499844 0.499591 0.766995 -0.062216
C8    C     C_R   0.500159 0.500409 0.233005 -0.062217
C9    C     C_R   0.392759 0.456875 0.806587 0.085928
C10   C     C_R   0.607245 0.543122 0.193414 0.085928
C11   C     C_R   0.397530 0.446718 0.900066 0.065171
C12   C     C_R   0.602475 0.553281 0.099935 0.065170
C13   C     C_R   0.500374 0.500669 0.953005 -0.045332
C14   C     C_R   0.499632 0.499330 0.046995 -0.045330
C15   C     C_R   0.603468 0.556241 0.912173 0.092815
C16   C     C_R   0.396538 0.443759 0.087828 0.092829
C17   C     C_R   0.302176 0.381058 0.941461 -0.204838
C18   C     C_R   0.697829 0.618941 0.058540 -0.204835
C19   C     C_R   0.302863 0.373160 0.033735 0.183536
C20   C     C_R   0.697144 0.626839 0.966267 0.183544
H1    H     H_    0.227677 0.329723 0.902067 0.159529
H2    H     H_    0.772327 0.670276 0.097936 0.159525
C21   C     C_R   0.064149 0.374707 0.501292 -0.187293
C22   C     C_R   0.935851 0.625293 0.498708 -0.187292
C23   C     C_R   0.936394 0.374697 0.502253 -0.185254
C24   C     C_R   0.063606 0.625303 0.497747 -0.185254
H3    H     H_    0.112306 0.276670 0.502509 0.155102
H4    H     H_    0.887694 0.723329 0.497490 0.155102
H5    H     H_    0.888680 0.276654 0.503924 0.153885
H6    H     H_    0.111319 0.723346 0.496075 0.153885
C25   C     C_R   0.871644 0.499985 0.500946 -0.010374
C26   C     C_R   0.128356 0.500015 0.499053 -0.010374
C27   C     C_R   0.419359 0.073964 0.442001 0.241682
C28   C     C_R   0.580641 0.926036 0.557998 0.241681
C29   C     C_R   0.580633 0.074175 0.558045 0.238581
C30   C     C_R   0.419367 0.925825 0.441954 0.238584
N1    N     N_R   0.500000 0.852070 0.500000 -0.191319
N2    N     N_R   0.500000 0.147930 0.500000 -0.191319
C31   C     C_3   0.731728 0.535998 0.777458 -0.872431
H7    H     H_    0.804730 0.489148 0.824021 0.241466
H8    H     H_    0.728908 0.469852 0.717299 0.206573
H9    H     H_    0.758867 0.640939 0.757769 0.235112
C32   C     C_3   0.268273 0.464015 0.222539 -0.872439
H10   H     H_    0.195269 0.510841 0.175966 0.241478
H11   H     H_    0.241138 0.359083 0.242245 0.235105
H12   H     H_    0.271088 0.530189 0.282685 0.206579
C33   C     C_3   0.274111 0.420979 0.749995 -0.841207
H13   H     H_    0.274408 0.454304 0.679987 0.229446
H14   H     H_    0.258896 0.307722 0.750539 0.231149
H15   H     H_    0.194015 0.474395 0.776351 0.224952
C34   C     C_3   0.725891 0.579018 0.250007 -0.841211
H16   H     H_    0.725596 0.545682 0.320012 0.229445
H17   H     H_    0.805990 0.525612 0.223648 0.224952
H18   H     H_    0.741100 0.692276 0.249468 0.231153
C35   C     C_3   0.212203 0.273419 0.070191 -0.868770
H19   H     H_    0.177844 0.196708 0.019155 0.223142
H20   H     H_    0.258574 0.212613 0.125769 0.238841
H21   H     H_    0.129722 0.328469 0.091197 0.236657
C36   C     C_3   0.787812 0.726576 0.929812 -0.868737
H22   H     H_    0.822212 0.803258 0.980858 0.223130
H23   H     H_    0.870274 0.671515 0.908779 0.236653
H24   H     H_    0.741430 0.787417 0.874252 0.238831
C37   C     C_3   0.327263 0.145363 0.375746 -0.787413
H25   H     H_    0.327694 0.256712 0.376814 0.279551
H26   H     H_    0.345688 0.116840 0.306800 0.203023
H27   H     H_    0.231152 0.116086 0.388225 0.191359
C38   C     C_3   0.672739 0.854637 0.624253 -0.787408
H28   H     H_    0.672306 0.743287 0.623187 0.279553
H29   H     H_    0.768850 0.883911 0.611770 0.191359
H30   H     H_    0.654318 0.883163 0.693199 0.203021
C39   C     C_3   0.672631 0.145701 0.624550 -0.771706
H31   H     H_    0.672862 0.257221 0.623903 0.271820
H32   H     H_    0.653887 0.117065 0.693386 0.205750
H33   H     H_    0.768730 0.115989 0.612282 0.188872
C40   C     C_3   0.327369 0.854299 0.375450 -0.771709
H34   H     H_    0.327138 0.742779 0.376096 0.271818
H35   H     H_    0.231270 0.884011 0.387717 0.188872
H36   H     H_    0.346113 0.882935 0.306614 0.205752

loop_
_geom_bond_atom_site_label_1
_geom_bond_atom_site_label_2
_geom_bond_distance
_ccdc_geom_bond_type
C27   C37   1.518176 S    
C1    C26   1.451358 S    
C3    C8    1.456224 S    
C17   C19   1.392830 A    
C37   H25   1.079466 S    
C32   H11   1.106392 S    
C24   C26   1.401207 A    
O3    C2    1.306170 A    
C39   H33   1.109091 S    
C39   H31   1.081063 S    
C32   H10   1.109508 S    
C9    C33   1.521532 S    
O5    C3    1.304198 A    
C27   C30   1.435964 A    
O1    C1    1.306082 A    
C21   C26   1.401289 A    
C28   C38   1.518178 S    
C9    C11   1.409608 A    
C14   C16   1.424225 A    
C33   H14   1.110303 S    
C34   H17   1.110783 S    
C10   C34   1.521524 S    
C36   H23   1.108194 S    
O7    Cu1   1.967727 S    
C6    C32   1.520686 S    
C21   C23   1.383598 A    
C35   H20   1.109896 S    
C2    C25   1.451358 S    
C4    C7    1.456224 S    
C13   C14   1.417914 A    
C27   N2    1.383081 A    
C8    C10   1.409206 A    
C34   H16   1.104310 S    
O3    Cu1   1.962965 S    
C28   N1    1.383080 A    
C38   H28   1.079471 S    
C30   C40   1.520103 S    
C32   H12   1.108844 S    
C38   H29   1.109124 S    
C11   C17   1.402506 A    
C12   C18   1.402504 A    
Cu1   Cu2   2.726938 S    
C37   H26   1.109478 S    
O2    C2    1.306081 A    
C22   C25   1.401289 A    
C23   C25   1.401207 A    
C39   H32   1.109400 S    
C40   H35   1.109090 S    
C6    C16   1.418394 A    
C17   H1    1.081894 S    
C24   H6    1.082977 S    
O8    Cu2   1.967727 S    
Cu1   N1    2.049275 S    
C33   H15   1.110788 S    
Cu2   N2    2.049276 S    
C29   N2    1.382636 A    
C31   H8    1.108853 S    
C40   H34   1.081063 S    
C21   H3    1.083077 S    
C36   H24   1.109920 S    
C23   H5    1.082977 S    
C18   H2    1.081895 S    
O6    C4    1.304196 A    
C35   H21   1.108173 S    
C19   C35   1.513271 S    
C10   C12   1.409609 A    
C31   H7    1.109525 S    
C11   C13   1.414600 A    
C37   H27   1.109122 S    
C12   C14   1.414595 A    
O1    Cu1   1.963090 S    
C20   C36   1.513291 S    
C28   C29   1.435964 A    
C40   H36   1.109399 S    
C38   H30   1.109479 S    
C15   C20   1.422397 A    
C5    C7    1.409933 A    
C30   N1    1.382636 A    
O6    Cu2   1.967486 S    
C22   H4    1.083077 S    
C29   C39   1.520103 S    
C31   H9    1.106402 S    
O4    C1    1.306169 A    
C18   C20   1.392835 A    
C34   H18   1.110296 S    
C33   H13   1.104317 S    
C7    C9    1.409204 A    
C22   C24   1.383598 A    
C5    C31   1.520682 S    
O4    Cu2   1.962966 S    
C36   H22   1.111440 S    
O2    Cu2   1.963089 S    
O7    C4    1.305364 A    
C5    C15   1.418401 A    
O8    C3    1.305364 A    
O5    Cu1   1.967486 S    
C13   C15   1.424231 A    
C16   C19   1.422385 A    
C6    C8    1.409925 A    
C35   H19   1.111406 S    
