data_str_m2_o4_o14_f0_pcu.sym.28
_audit_creation_date              2012-10-26T19:35:13-0400
_audit_creation_method            fapswitch 2.2
_symmetry_space_group_name_H-M    P1
_symmetry_Int_Tables_number       1
_space_group_crystal_system       triclinic
_cell_length_a                    10.843318
_cell_length_b                    10.820189
_cell_length_c                    9.540103
_cell_angle_alpha                 90.145427
_cell_angle_beta                  90.205381
_cell_angle_gamma                 88.550781
_cell_volume                      1118.94070838

loop_
_atom_site_label
_atom_site_type_symbol
_atom_type_description
_atom_site_fract_x
_atom_site_fract_y
_atom_site_fract_z
_atom_type_partial_charge
C1    C     C_R   0.494293 0.262631 0.499940 0.521806
C2    C     C_R   0.482972 0.935735 0.372748 -0.118809
C3    C     C_R   0.503015 0.870802 0.498490 0.023147
C4    C     C_R   0.262680 0.495324 0.499699 0.528803
C5    C     C_R   0.532074 0.936203 0.619837 0.022797
C6    C     C_3   0.477083 0.930213 0.762863 -0.262312
C7    C     C_3   0.474892 0.070545 0.763226 -0.268881
C8    C     C_R   0.566532 0.585234 0.074322 0.199639
C9    C     C_R   0.427073 0.423212 0.073766 0.002918
C10   C     C_R   0.426709 0.423514 0.924991 -0.003134
C11   C     C_R   0.566988 0.584103 0.926566 0.121842
C12   C     C_R   0.070650 0.399546 0.406496 0.028584
C13   C     C_3   0.703060 0.597681 0.919597 -0.237441
C14   C     C_3   0.703784 0.599749 0.078744 0.135142
C15   C     C_R   0.498976 0.737623 0.499976 0.578625
C16   C     C_R   0.737692 0.489916 0.499851 0.549382
C17   C     C_R   0.139858 0.320386 0.316260 -0.112574
C18   C     C_R   0.082525 0.244841 0.220131 -0.153099
C19   C     C_R   0.955866 0.235070 0.222164 -0.078740
C20   C     C_R   0.884896 0.299873 0.322213 0.014698
C21   C     C_R   0.939829 0.391982 0.408722 -0.012942
C22   C     C_2   0.763189 0.249820 0.350846 0.260520
C23   C     C_R   0.129649 0.482167 0.498953 0.010519
C24   C     C_R   0.061501 0.553675 0.593958 -0.138909
C25   C     C_R   0.934620 0.550582 0.593821 -0.122660
C26   C     C_R   0.872202 0.474234 0.500500 -0.002194
C27   C     C_R   0.529967 0.063511 0.619969 0.021827
C28   C     C_R   0.498141 0.129154 0.498807 0.011417
C29   C     C_R   0.480182 0.064277 0.372959 -0.122148
Cu1   Cu    Cu3+1 0.499990 0.499980 0.640670 0.938565
Cu2   Cu    Cu3+1 0.500010 0.500020 0.359330 1.012199
H1    H     H_    0.106738 0.616096 0.665563 0.137993
H2    H     H_    0.238979 0.312717 0.319932 0.133292
H3    H     H_    0.137290 0.187642 0.149423 0.113824
H4    H     H_    0.914734 0.167158 0.153917 0.170216
H5    H     H_    0.884454 0.612139 0.664413 0.137858
H6    H     H_    0.459770 0.112419 0.275849 0.153331
H7    H     H_    0.463716 0.887769 0.275672 0.177039
H8    H     H_    0.383553 0.890302 0.762555 0.144950
H9    H     H_    0.685154 0.936200 0.129523 0.383696
H10   H     H_    0.729513 0.250261 0.457275 0.099821
H11   H     H_    0.542673 0.888925 0.840320 0.195035
H12   H     H_    0.380089 0.112296 0.763219 0.132224
H13   H     H_    0.539185 0.110377 0.841290 0.161294
H14   H     H_    0.370326 0.358826 0.128833 0.106432
H15   H     H_    0.369187 0.359791 0.868723 0.116685
H16   H     H_    0.751396 0.514252 0.876393 0.120205
H17   H     H_    0.727908 0.685988 0.868840 0.173803
H18   H     H_    0.754758 0.519372 0.125407 0.128771
N1    N     N_R   0.500790 0.500930 0.147930 -0.254053
N2    N     N_R   0.500790 0.500890 0.852020 -0.241409
O1    O     O_R   0.500000 0.319640 0.618810 -0.515918
O2    O     O_2   0.877473 0.771833 0.097331 -0.286740
O3    O     O_3   0.651902 0.858741 0.090855 -0.576293
O4    O     O_2   0.703017 0.202171 0.257679 -0.525786
O5    O     O_R   0.500010 0.319680 0.381230 -0.497841
O6    O     O_R   0.319640 0.499980 0.618820 -0.510908
O7    O     O_R   0.319650 0.500020 0.381230 -0.514331
O8    O     O_R   0.499990 0.680320 0.618770 -0.503243
O9    O     O_R   0.500000 0.680360 0.381190 -0.462080
O10   O     O_R   0.680350 0.499980 0.618770 -0.518249
O11   O     O_R   0.680360 0.500020 0.381180 -0.468730
O12   O     O_2   0.749290 0.743441 0.304785 -0.258162
S1    S     S_3+6 0.749399 0.746186 0.147428 -0.001315

loop_
_geom_bond_atom_site_label_1
_geom_bond_atom_site_label_2
_ccdc_geom_bond_type
C4    O6    A    
C12   C17   A    
C13   H17   S    
C23   C24   A    
C24   H1    S    
C9    H14   S    
C6    C7    S    
C7    H12   S    
Cu2   O5    S    
C1    C28   S    
C11   C13   S    
C15   O9    A    
C2    H7    S    
C19   C20   A    
C12   C23   A    
C5    C27   A    
Cu1   Cu2   S    
Cu1   N2    S    
C14   S1    S    
Cu1   O8    S    
C2    C3    A    
C7    C27   S    
C19   H4    S    
C13   C14   S    
C24   C25   A    
C18   H3    S    
Cu2   O11   S    
C22   O4    D    
C17   H2    S    
C2    C29   A    
C10   N2    A    
Cu2   O7    S    
C28   C29   A    
O2    S1    D    
C21   C26   A    
C20   C22   S    
C17   C18   A    
H9    O3    S    
C8    C11   A    
C16   C26   S    
C5    C6    S    
C1    O1    A    
C1    O5    A    
C14   H18   S    
C11   N2    A    
C16   O10   A    
Cu2   N1    S    
C29   H6    S    
O12   S1    D    
C22   H10   S    
Cu1   O6    S    
C8    N1    A    
C10   H15   S    
C3    C15   S    
C20   C21   A    
O3    S1    S    
C18   C19   A    
C9    C10   A    
Cu1   O10   S    
C4    O7    A    
C27   C28   A    
C13   H16   S    
C4    C23   S    
Cu1   O1    S    
C6    H8    S    
C8    C14   S    
C25   H5    S    
Cu2   O9    S    
C25   C26   A    
C7    H13   S    
C15   O8    A    
C12   C21   A    
C16   O11   A    
C9    N1    A    
C3    C5    A    
C6    H11   S    
