data_str_m2_o4_o4_f0_pcu.sym.191
_audit_creation_date              2012-12-10T19:07:37-0500
_audit_creation_method            fapswitch 2.2
_symmetry_space_group_name_H-M    P1
_symmetry_Int_Tables_number       1
_space_group_crystal_system       triclinic
_cell_length_a                    10.90454
_cell_length_b                    11.001659
_cell_length_c                    9.759098
_cell_angle_alpha                 90.172788
_cell_angle_beta                  88.853639
_cell_angle_gamma                 101.294499
_cell_volume                      1147.87554426

loop_
_atom_site_label
_atom_site_type_symbol
_atom_type_description
_atom_site_fract_x
_atom_site_fract_y
_atom_site_fract_z
_atom_type_partial_charge
C1    C     C_R   0.497650 0.262480 0.498714 0.875188
C2    C     C_R   0.931436 0.494407 0.616974 0.204799
C3    C     C_3   0.907258 0.386831 0.713725 -0.235956
C4    C     C_3   0.047326 0.404110 0.724073 -0.343164
C5    C     C_R   0.563912 0.078831 0.590321 0.014820
C6    C     C_R   0.500086 0.129703 0.492422 -0.084236
C7    C     C_R   0.447860 0.052541 0.384769 -0.094200
C8    C     C_R   0.448791 0.924705 0.388215 -0.122675
C9    C     C_R   0.509304 0.873251 0.494053 -0.073096
C10   C     C_R   0.578596 0.955862 0.586844 0.065667
C11   C     C_3   0.576702 0.951952 0.739964 -0.283894
C12   C     C_R   0.263649 0.505040 0.500781 0.849486
C13   C     C_3   0.535893 0.073884 0.738456 -0.346548
C14   C     C_R   0.596092 0.568867 0.070768 -0.013220
C15   C     C_R   0.410166 0.416988 0.079241 0.370686
C16   C     C_R   0.409889 0.417912 0.928448 0.362927
C17   C     C_R   0.600393 0.562286 0.925584 0.036691
C18   C     C_3   0.659588 0.695866 0.912837 0.192812
C19   C     C_3   0.639653 0.707797 0.069048 0.256619
C20   C     C_R   0.503334 0.738045 0.499516 0.812446
C21   C     C_R   0.736994 0.500195 0.498320 0.861582
C22   C     C_R   0.059982 0.504884 0.621110 0.055099
C23   C     C_R   0.132344 0.517978 0.500609 -0.133488
C24   C     C_R   0.073991 0.538121 0.377419 -0.136734
C25   C     C_R   0.944230 0.529727 0.374534 -0.089466
C26   C     C_R   0.871654 0.507152 0.495414 -0.086643
Cu1   Cu    Cu3+1 0.499990 0.499980 0.640670 1.067563
Cu2   Cu    Cu3+1 0.500010 0.500020 0.359330 1.085877
H1    H     H_    0.127144 0.554418 0.282251 0.204178
H2    H     H_    0.433418 0.054638 0.752098 0.259140
H3    H     H_    0.590329 0.151144 0.798887 0.223387
H4    H     H_    0.600037 0.740759 0.849754 0.060556
H5    H     H_    0.900212 0.533860 0.277435 0.225422
H6    H     H_    0.859809 0.403413 0.811407 0.205134
H7    H     H_    0.082086 0.443040 0.824368 0.253547
H8    H     H_    0.084111 0.323788 0.684197 0.253371
H9    H     H_    0.400065 0.088873 0.302987 0.219672
H10   H     H_    0.396944 0.865439 0.311878 0.164880
H11   H     H_    0.504290 0.878267 0.787186 0.179314
N1    N     N_R   0.500790 0.500930 0.147930 -0.297071
N2    N     N_R   0.500790 0.500890 0.852020 -0.289166
O1    O     O_R   0.500000 0.319640 0.618810 -0.533239
O2    O     O_R   0.500010 0.319680 0.381230 -0.526414
O3    O     O_R   0.319650 0.499970 0.618810 -0.538099
O4    O     O_R   0.319660 0.500010 0.381230 -0.533900
O5    O     O_R   0.499990 0.680320 0.618770 -0.597014
O6    O     O_R   0.500000 0.680360 0.381190 -0.573831
O7    O     O_R   0.680340 0.499990 0.618770 -0.544758
O8    O     O_R   0.680350 0.500030 0.381190 -0.549177
C27   C     C_2   0.707076 0.968911 0.793445 0.478938
H12   H     H_    0.783303 0.954166 0.726395 0.130853
O9    O     O_2   0.729477 0.006123 0.909847 -0.426984
S1    S     S_3+6 0.281225 0.312711 0.172890 0.085720
O10   O     O_2   0.165884 0.364993 0.149973 -0.276690
O11   O     O_2   0.260662 0.183416 0.117223 -0.217291
O12   O     O_3   0.280723 0.283695 0.341226 -0.524708
H13   H     H_    0.194602 0.239749 0.364779 0.369082
S2    S     S_3+6 0.303821 0.290636 0.849271 0.040412
O13   O     O_2   0.289878 0.288171 0.697770 -0.310527
O14   O     O_2   0.353440 0.178742 0.887513 -0.299195
O15   O     O_3   0.157136 0.269945 0.913072 -0.489357
H14   H     H_    0.116983 0.184619 0.886422 0.394185
S3    S     S_3+6 0.817996 0.718487 0.844495 0.048616
O16   O     O_2   0.896873 0.836456 0.896397 -0.212271
O17   O     O_2   0.877788 0.612479 0.883973 -0.284373
O18   O     O_3   0.814120 0.728795 0.673038 -0.570711
H15   H     H_    0.902031 0.759899 0.643299 0.362060
S4    S     S_3+6 0.774258 0.766906 0.173855 0.107564
O19   O     O_2   0.741496 0.747191 0.323041 -0.309768
O20   O     O_2   0.882008 0.705206 0.139992 -0.256085
O21   O     O_3   0.819755 0.920256 0.148041 -0.388444
H16   H     H_    0.892411 0.946004 0.208104 0.380101
C28   C     C_2   0.533532 0.774719 0.098757 0.330157
H17   H     H_    0.439445 0.723155 0.119199 0.045339
O22   O     O_2   0.551027 0.887624 0.094902 -0.451699
C29   C     C_2   0.850230 0.264519 0.649725 0.346318
H18   H     H_    0.791670 0.196068 0.712775 0.085947
O23   O     O_2   0.873745 0.239381 0.531228 -0.522064

loop_
_geom_bond_atom_site_label_1
_geom_bond_atom_site_label_2
_ccdc_geom_bond_type
Cu1   O7    S    
C21   C26   S    
S3    O17   D    
Cu2   O6    S    
C28   H17   S    
C21   O8    A    
C7    C8    A    
S1    O10   D    
C12   C23   S    
C15   S1    S    
C29   O23   D    
C5    C6    A    
C18   S3    S    
Cu2   N1    S    
S2    O14   D    
C15   C16   A    
O12   H13   S    
C18   C19   S    
C24   H1    S    
Cu1   O3    S    
C1    O2    A    
C8    C9    A    
C2    C22   A    
C27   O9    D    
C23   C24   A    
C9    C10   A    
C5    C13   S    
C21   O7    A    
S2    O15   S    
O18   H15   S    
S3    O18   S    
C28   O22   D    
C14   C17   A    
C8    H10   S    
C17   C18   S    
S1    O11   D    
Cu2   O4    S    
C1    C6    S    
C13   H2    S    
C19   C28   S    
C24   C25   A    
S4    O19   D    
C3    H6    S    
C25   C26   A    
C4    C22   S    
Cu2   O8    S    
Cu1   N2    S    
C9    C20   S    
C27   H12   S    
C7    H9    S    
C19   S4    S    
C2    C26   A    
C16   S2    S    
C29   H18   S    
C11   H11   S    
C3    C29   S    
Cu1   O5    S    
C4    H8    S    
C18   H4    S    
C3    C4    S    
S1    O12   S    
C14   C19   S    
C13   H3    S    
C12   O4    A    
C6    C7    A    
Cu2   O2    S    
C2    C3    S    
S2    O13   D    
O21   H16   S    
C12   O3    A    
C11   C27   S    
C11   C13   S    
Cu1   O1    S    
S4    O21   S    
O15   H14   S    
C17   N2    A    
C15   N1    A    
C4    H7    S    
C20   O6    A    
C10   C11   S    
C14   N1    A    
S3    O16   D    
C1    O1    A    
C5    C10   A    
S4    O20   D    
Cu1   Cu2   S    
C22   C23   A    
C16   N2    A    
C20   O5    A    
C25   H5    S    
