data_str_m2_o1_o10_f0_pcu.sym.124
_audit_creation_date              2012-12-10T17:55:03-0500
_audit_creation_method            fapswitch 2.2
_symmetry_space_group_name_H-M    P1
_symmetry_Int_Tables_number       1
_space_group_crystal_system       triclinic
_cell_length_a                    8.726145
_cell_length_b                    10.798389
_cell_length_c                    9.690807
_cell_angle_alpha                 90.285709
_cell_angle_beta                  97.903333
_cell_angle_gamma                 95.061186
_cell_volume                      900.812689353

loop_
_atom_site_label
_atom_site_type_symbol
_atom_type_description
_atom_site_fract_x
_atom_site_fract_y
_atom_site_fract_z
_atom_type_partial_charge
C1    C     C_R   0.502205 0.262969 0.499675 0.787947
C2    C     C_R   0.497794 0.737031 0.500325 0.787947
C3    C     C_R   0.204274 0.499433 0.464043 0.860055
C4    C     C_R   0.795726 0.500567 0.535956 0.860054
C5    C     C_2   0.038014 0.499096 0.444691 -0.375437
C6    C     C_2   0.961986 0.500904 0.555309 -0.375437
C7    C     C_R   0.600559 0.068590 0.419767 0.175508
C8    C     C_R   0.399441 0.931410 0.580233 0.175509
C9    C     C_R   0.595073 0.939462 0.422069 -0.227830
C10   C     C_R   0.404928 0.060538 0.577932 -0.227830
C11   C     C_R   0.496378 0.871065 0.501494 -0.061459
C12   C     C_R   0.503622 0.128935 0.498506 -0.061459
C13   C     C_R   0.398282 0.418961 0.061133 0.231526
C14   C     C_R   0.601717 0.581038 0.938867 0.231526
C15   C     C_R   0.398078 0.419150 0.912895 0.244069
C16   C     C_R   0.601922 0.580850 0.087104 0.244069
Cu1   Cu    Cu3+1 0.500000 0.500020 0.640660 0.924187
Cu2   Cu    Cu3+1 0.500000 0.499980 0.359340 0.924187
H1    H     H_    0.977939 0.497231 0.338621 0.182143
H2    H     H_    0.022061 0.502769 0.661379 0.182143
N1    N     N_R   0.500040 0.500030 0.852080 -0.192403
N2    N     N_R   0.499960 0.499970 0.147920 -0.192402
O1    O     O_R   0.499990 0.319660 0.618740 -0.585513
O2    O     O_R   0.500010 0.680340 0.381260 -0.585513
O3    O     O_R   0.499990 0.319630 0.381170 -0.585027
O4    O     O_R   0.500010 0.680370 0.618830 -0.585028
O5    O     O_R   0.274840 0.500010 0.591370 -0.580458
O6    O     O_R   0.725160 0.499990 0.408630 -0.580458
O7    O     O_R   0.274830 0.499980 0.353800 -0.587570
O8    O     O_R   0.725170 0.500020 0.646200 -0.587569
C17   C     C_3   0.713502 0.139251 0.337423 -0.830389
H3    H     H_    0.787342 0.210867 0.405067 0.227859
H4    H     H_    0.791672 0.076952 0.295827 0.214217
H5    H     H_    0.649371 0.184404 0.247310 0.252829
C18   C     C_3   0.286497 0.860749 0.662576 -0.830390
H6    H     H_    0.212655 0.789135 0.594931 0.227858
H7    H     H_    0.350627 0.815594 0.752688 0.252830
H8    H     H_    0.208329 0.923048 0.704174 0.214217
H9    H     H_    0.670063 0.891740 0.363554 0.142965
H10   H     H_    0.329937 0.108260 0.636447 0.142965
C19   C     C_3   0.283016 0.325738 0.118153 -0.771378
H11   H     H_    0.306119 0.229690 0.091668 0.199958
H12   H     H_    0.283502 0.326491 0.229874 0.274121
H13   H     H_    0.162607 0.342553 0.074042 0.198668
C20   C     C_3   0.716984 0.674261 0.881846 -0.771377
H14   H     H_    0.693881 0.770310 0.908332 0.199958
H15   H     H_    0.837392 0.657447 0.925958 0.198668
H16   H     H_    0.716498 0.673509 0.770126 0.274121
C21   C     C_3   0.281203 0.326976 0.826511 -0.784860
H17   H     H_    0.282310 0.326594 0.715003 0.271314
H18   H     H_    0.301626 0.230676 0.858523 0.197141
H19   H     H_    0.161356 0.345916 0.840536 0.197816
C22   C     C_3   0.718796 0.673024 0.173489 -0.784860
H20   H     H_    0.717690 0.673406 0.284996 0.271314
H21   H     H_    0.838644 0.654084 0.159464 0.197815
H22   H     H_    0.698374 0.769324 0.141477 0.197141

loop_
_geom_bond_atom_site_label_1
_geom_bond_atom_site_label_2
_ccdc_geom_bond_type
C1    C12   S    
C17   H4    S    
C13   C19   S    
C5    H1    S    
C6    H2    S    
C19   H11   S    
C19   H12   S    
C17   H3    S    
C13   C15   A    
C15   N1    A    
C21   H19   S    
C21   H18   S    
C22   H21   S    
Cu1   Cu2   S    
C17   H5    S    
C2    O4    A    
Cu2   O7    S    
Cu2   N2    S    
C22   H20   S    
C1    O3    A    
Cu1   O8    S    
C9    C11   A    
C3    O7    A    
Cu1   O1    S    
Cu2   O3    S    
C10   C12   A    
C8    C11   A    
Cu2   O2    S    
Cu1   O4    S    
C14   N1    A    
C3    O5    A    
C18   H7    S    
C13   N2    A    
C1    O1    A    
C14   C20   S    
C15   C21   S    
C2    O2    A    
C5    C6    D    
C19   H13   S    
C14   C16   A    
C7    C12   A    
C22   H22   S    
C4    C6    S    
C7    C17   S    
C2    C11   S    
Cu1   O5    S    
C9    H9    S    
C18   H8    S    
Cu2   O6    S    
C8    C10   A    
C21   H17   S    
C20   H15   S    
C7    C9    A    
C16   C22   S    
C10   H10   S    
C16   N2    A    
C20   H16   S    
C4    O6    A    
C20   H14   S    
C4    O8    A    
C18   H6    S    
C3    C5    S    
C8    C18   S    
Cu1   N1    S    
