data_str_m2_o1_o24_f0_pcu.sym.52
_audit_creation_date              2012-10-26T20:22:07-0400
_audit_creation_method            fapswitch 2.2
_symmetry_space_group_name_H-M    P1
_symmetry_Int_Tables_number       1
_space_group_crystal_system       triclinic
_cell_length_a                    10.660785
_cell_length_b                    9.709678
_cell_length_c                    10.597876
_cell_angle_alpha                 89.998316
_cell_angle_beta                  93.240208
_cell_angle_gamma                 89.996725
_cell_volume                      1095.26195625

loop_
_atom_site_label
_atom_site_type_symbol
_atom_type_description
_atom_site_fract_x
_atom_site_fract_y
_atom_site_fract_z
_atom_type_partial_charge
C1    C     C_R   0.870971 0.499979 0.499935 0.031702
C2    C     C_3   0.380422 0.498521 0.034179 -0.128649
C3    C     C_3   0.439485 0.612283 0.954500 -0.124891
C4    C     C_3   0.560537 0.387710 0.045505 -0.124923
C5    C     C_3   0.500888 0.499926 0.877455 0.053223
C6    C     C_3   0.499131 0.500066 0.122549 0.053202
C7    C     C_R   0.411349 0.074051 0.428653 0.067594
C8    C     C_R   0.588640 0.925946 0.571359 0.067609
C9    C     C_R   0.588705 0.074033 0.571273 0.067479
C10   C     C_R   0.411286 0.925964 0.428733 0.067484
C11   C     C_R   0.058406 0.498896 0.385124 -0.128512
C12   C     C_R   0.129027 0.500017 0.500045 0.031706
C13   C     C_R   0.941594 0.501093 0.614852 -0.128528
C14   C     C_R   0.928451 0.498824 0.384931 -0.156971
C15   C     C_R   0.071545 0.501154 0.615046 -0.156981
C16   C     C_R   0.310860 0.144764 0.350740 0.092381
C17   C     C_R   0.190222 0.156031 0.397224 -0.069936
C18   C     C_R   0.086819 0.189232 0.316130 -0.115232
C19   C     C_R   0.102883 0.213946 0.188342 -0.116892
C20   C     C_R   0.222163 0.203441 0.141205 -0.126079
C21   C     C_R   0.325775 0.167911 0.221602 -0.073294
C22   C     C_R   0.689125 0.855244 0.649286 0.092386
C23   C     C_R   0.262940 0.500003 0.499774 0.547108
C24   C     C_R   0.674239 0.832214 0.778451 -0.073359
C25   C     C_R   0.777862 0.796767 0.858862 -0.126056
C26   C     C_R   0.897127 0.786167 0.811701 -0.116877
C27   C     C_R   0.913166 0.810742 0.683885 -0.115259
C28   C     C_R   0.809756 0.843922 0.602794 -0.069905
C29   C     C_R   0.689752 0.144762 0.648400 0.092289
C30   C     C_R   0.810003 0.155866 0.600980 -0.069840
C31   C     C_R   0.913796 0.190209 0.681090 -0.114490
C32   C     C_R   0.898542 0.215948 0.808861 -0.116522
C33   C     C_R   0.779688 0.205390 0.856963 -0.125497
C34   C     C_R   0.737058 0.499995 0.500210 0.547101
C35   C     C_R   0.675682 0.168824 0.777540 -0.072471
C36   C     C_R   0.310265 0.855237 0.351567 0.092265
C37   C     C_R   0.324410 0.831161 0.222444 -0.072440
C38   C     C_R   0.220451 0.794577 0.142958 -0.125503
C39   C     C_R   0.101556 0.784042 0.190979 -0.116545
C40   C     C_R   0.086227 0.809811 0.318727 -0.114476
C41   C     C_R   0.189980 0.844136 0.398907 -0.069861
C42   C     C_R   0.499011 0.500013 0.259743 0.546154
C43   C     C_R   0.500996 0.499985 0.740259 0.546160
C44   C     C_3   0.558158 0.613843 0.045226 -0.124317
C45   C     C_3   0.441862 0.386145 0.954779 -0.124344
C46   C     C_3   0.619597 0.501472 0.965825 -0.128615
Cu1   Cu    Cu3+1 0.500000 0.640660 0.500000 0.934967
Cu2   Cu    Cu3+1 0.500000 0.359340 0.500000 0.934964
H1    H     H_    0.391422 0.704219 0.912594 0.099405
H2    H     H_    0.126983 0.502018 0.703983 0.097074
H3    H     H_    0.175783 0.133161 0.495361 0.087823
H4    H     H_    0.994090 0.195079 0.352321 0.107324
H5    H     H_    0.022671 0.239699 0.125599 0.097662
H6    H     H_    0.233269 0.218747 0.041487 0.094386
H7    H     H_    0.416293 0.152301 0.182350 0.097405
H8    H     H_    0.583729 0.847876 0.817713 0.097346
H9    H     H_    0.766787 0.781596 0.958601 0.094387
H10   H     H_    0.977356 0.760464 0.874440 0.097668
H11   H     H_    0.005887 0.804815 0.647678 0.107354
H12   H     H_    0.608594 0.295776 0.087423 0.099409
H13   H     H_    0.824192 0.866722 0.504642 0.087870
H14   H     H_    0.823806 0.132337 0.502836 0.087536
H15   H     H_    0.006180 0.196226 0.644151 0.107459
H16   H     H_    0.979081 0.242584 0.870830 0.097512
H17   H     H_    0.769248 0.221526 0.956676 0.094109
H18   H     H_    0.585522 0.153281 0.817537 0.097096
H19   H     H_    0.414604 0.846686 0.182495 0.097112
H20   H     H_    0.230959 0.778406 0.043264 0.094112
H21   H     H_    0.021057 0.757392 0.128967 0.097496
H22   H     H_    0.993800 0.803833 0.355593 0.107421
H23   H     H_    0.604265 0.707072 0.086799 0.099488
H24   H     H_    0.176104 0.867672 0.497029 0.087541
H25   H     H_    0.395770 0.292892 0.913247 0.099492
H26   H     H_    0.717229 0.502514 0.934516 0.105222
H27   H     H_    0.282790 0.497482 0.065484 0.105218
H28   H     H_    0.104027 0.498136 0.296293 0.122835
H29   H     H_    0.895972 0.501838 0.703682 0.122835
H30   H     H_    0.873013 0.497929 0.295993 0.097063
N1    N     N_R   0.500000 0.852070 0.500000 -0.252089
N2    N     N_R   0.500000 0.147930 0.500000 -0.252090
O1    O     O_R   0.319640 0.618740 0.499990 -0.498253
O2    O     O_R   0.680360 0.381260 0.500010 -0.498257
O3    O     O_R   0.680360 0.618740 0.500010 -0.498565
O4    O     O_R   0.319640 0.381260 0.499990 -0.498540
O5    O     O_R   0.499970 0.618770 0.316850 -0.506433
O6    O     O_R   0.500030 0.381230 0.683150 -0.506420
O7    O     O_R   0.500030 0.618770 0.683150 -0.506243
O8    O     O_R   0.499970 0.381230 0.316850 -0.506278

loop_
_geom_bond_atom_site_label_1
_geom_bond_atom_site_label_2
_ccdc_geom_bond_type
C7    C10   A    
C16   C21   A    
C19   C20   A    
Cu1   N1    S    
C17   H3    S    
C3    H1    S    
C33   H17   S    
C4    C46   S    
C12   C23   S    
C26   C27   A    
C37   C38   A    
C40   H22   S    
Cu1   O5    S    
C36   C37   A    
C11   H28   S    
C30   C31   A    
C11   C14   A    
C44   H23   S    
C45   H25   S    
C18   C19   A    
C15   H2    S    
C31   C32   A    
C8    C9    A    
C8    N1    A    
C8    C22   S    
Cu2   O8    S    
Cu1   O3    S    
C9    C29   S    
C28   H13   S    
C19   H5    S    
Cu1   O1    S    
C5    C43   S    
C6    C44   S    
C36   C41   A    
C2    C6    S    
C25   H9    S    
C44   C46   S    
C1    C34   S    
C4    C45   S    
C2    C45   S    
C13   H29   S    
C3    C44   S    
C23   O4    A    
C18   H4    S    
C31   H15   S    
C24   C25   A    
C32   H16   S    
C20   H6    S    
C39   C40   A    
C21   H7    S    
C16   C17   A    
C35   H18   S    
C25   C26   A    
C5    C45   S    
Cu2   O4    S    
C9    N2    A    
Cu1   O7    S    
C29   C30   A    
Cu1   Cu2   S    
C12   C15   A    
C11   C12   A    
C4    H12   S    
C17   C18   A    
C39   H21   S    
C42   O5    A    
C26   H10   S    
C41   H24   S    
C4    C6    S    
C40   C41   A    
C38   H20   S    
C30   H14   S    
Cu2   O6    S    
C42   O8    A    
C34   O3    A    
C46   H26   S    
C7    C16   S    
C23   O1    A    
C43   O6    A    
C3    C5    S    
C10   C36   S    
C10   N1    A    
C24   H8    S    
C5    C46   S    
C29   C35   A    
C43   O7    A    
C32   C33   A    
Cu2   N2    S    
C13   C15   A    
C2    C3    S    
C27   H11   S    
C38   C39   A    
C37   H19   S    
C33   C35   A    
Cu2   O2    S    
C22   C24   A    
C14   H30   S    
C1    C13   A    
C20   C21   A    
C6    C42   S    
C27   C28   A    
C22   C28   A    
C1    C14   A    
C34   O2    A    
C2    H27   S    
C7    N2    A    
